6X3X
  PyMOL3.1          3D                             0

 20 22  0  0  0  0  0  0  0  0999 V2000
  132.4930  134.0320  106.9130 Cl  0  0  0  0  0  0  0  0  0  0  0  0
  139.0050  134.3290  105.3020 C   0  0  0  0  0  0  0  0  0  0  0  0
  138.3810  134.1790  112.9560 O   0  0  0  0  0  0  0  0  0  0  0  0
  139.8080  135.5400  105.2570 C   0  0  0  0  0  0  0  0  0  0  0  0
  136.7420  133.2520  111.5390 N   0  0  0  0  0  0  0  0  0  0  0  0
  139.8600  136.4220  106.4100 C   0  0  0  0  0  0  0  0  0  0  0  0
  139.1120  136.0890  107.6080 C   0  0  0  0  0  0  0  0  0  0  0  0
  137.6210  134.8040  109.0910 C   0  0  0  0  0  0  0  0  0  0  0  0
  135.7240  133.4730  110.3930 C   0  0  0  0  0  0  0  0  0  0  0  0
  134.3750  132.9060  110.4960 C   0  0  0  0  0  0  0  0  0  0  0  0
  133.3970  133.0880  109.4440 C   0  0  0  0  0  0  0  0  0  0  0  0
  133.7750  133.8260  108.2530 C   0  0  0  0  0  0  0  0  0  0  0  0
  138.2540  133.9900  106.5010 C   0  0  0  0  0  0  0  0  0  0  0  0
  138.3120  134.8750  107.6480 C   0  0  0  0  0  0  0  0  0  0  0  0
  136.1060  134.2110  109.1800 C   0  0  0  0  0  0  0  0  0  0  0  0
  135.1110  134.3840  108.1140 C   0  0  0  0  0  0  0  0  0  0  0  0
  137.9950  135.9570  109.9950 N   0  0  0  0  0  0  0  0  0  0  0  0
  137.5440  135.8940  111.4280 C   0  0  0  0  0  0  0  0  0  0  0  0
  137.5930  134.4170  112.0270 C   0  0  0  0  0  0  0  0  0  0  0  0
  136.8500  131.8920  112.2150 C   0  0  0  0  0  0  0  0  0  0  0  0
  2  4  2  0  0  0  0
  4  6  1  0  0  0  0
  6  7  2  0  0  0  0
  5  9  1  0  0  0  0
  9 10  2  0  0  0  0
 10 11  1  0  0  0  0
  1 12  1  0  0  0  0
 11 12  2  0  0  0  0
  2 13  1  0  0  0  0
  7 14  1  0  0  0  0
  8 14  1  0  0  0  0
 13 14  2  0  0  0  0
  8 15  1  0  0  0  0
  9 15  1  0  0  0  0
 12 16  1  0  0  0  0
 15 16  2  0  0  0  0
  8 17  2  0  0  0  0
 17 18  1  0  0  0  0
  3 19  2  0  0  0  0
  5 19  1  0  0  0  0
 18 19  1  0  0  0  0
  5 20  1  0  0  0  0
M  END
$$$$
