6X3X
  PyMOL3.1          3D                             0

 20 22  0  0  0  0  0  0  0  0999 V2000
  144.7490  126.7060  118.8520 Cl  0  0  0  0  0  0  0  0  0  0  0  0
  145.0310  126.2120  126.1330 C   0  0  0  0  0  0  0  0  0  0  0  0
  147.4830  119.8920  122.8590 O   0  0  0  0  0  0  0  0  0  0  0  0
  143.5910  126.1850  125.9400 C   0  0  0  0  0  0  0  0  0  0  0  0
  145.9330  121.0960  121.5100 N   0  0  0  0  0  0  0  0  0  0  0  0
  143.0020  125.3230  124.9270 C   0  0  0  0  0  0  0  0  0  0  0  0
  143.8560  124.4890  124.1020 C   0  0  0  0  0  0  0  0  0  0  0  0
  146.0100  123.5050  123.2750 C   0  0  0  0  0  0  0  0  0  0  0  0
  145.6490  122.4770  120.8780 C   0  0  0  0  0  0  0  0  0  0  0  0
  145.3340  122.5930  119.4540 C   0  0  0  0  0  0  0  0  0  0  0  0
  145.0660  123.8720  118.8410 C   0  0  0  0  0  0  0  0  0  0  0  0
  145.0940  125.0640  119.6570 C   0  0  0  0  0  0  0  0  0  0  0  0
  145.8890  125.3750  125.3120 C   0  0  0  0  0  0  0  0  0  0  0  0
  145.2990  124.5180  124.3000 C   0  0  0  0  0  0  0  0  0  0  0  0
  145.6670  123.6810  121.7010 C   0  0  0  0  0  0  0  0  0  0  0  0
  145.3900  124.9730  121.0710 C   0  0  0  0  0  0  0  0  0  0  0  0
  147.4490  123.1490  123.5950 N   0  0  0  0  0  0  0  0  0  0  0  0
  148.1450  122.2340  122.6170 C   0  0  0  0  0  0  0  0  0  0  0  0
  147.1990  120.9840  122.3470 C   0  0  0  0  0  0  0  0  0  0  0  0
  145.0340  119.9020  121.2300 C   0  0  0  0  0  0  0  0  0  0  0  0
  2  4  2  0  0  0  0
  4  6  1  0  0  0  0
  6  7  2  0  0  0  0
  5  9  1  0  0  0  0
  9 10  2  0  0  0  0
 10 11  1  0  0  0  0
  1 12  1  0  0  0  0
 11 12  2  0  0  0  0
  2 13  1  0  0  0  0
  7 14  1  0  0  0  0
  8 14  1  0  0  0  0
 13 14  2  0  0  0  0
  8 15  1  0  0  0  0
  9 15  1  0  0  0  0
 12 16  1  0  0  0  0
 15 16  2  0  0  0  0
  8 17  2  0  0  0  0
 17 18  1  0  0  0  0
  3 19  2  0  0  0  0
  5 19  1  0  0  0  0
 18 19  1  0  0  0  0
  5 20  1  0  0  0  0
M  END
$$$$
