7X5N
  PyMOL3.1          3D                             0

 30 33  0  0  0  0  0  0  0  0999 V2000
   79.1917   47.2039   53.4102 C   0  0  0  0  0  0  0  0  0  0  0  0
   80.4888   48.0253   53.3871 C   0  0  0  0  0  0  0  0  0  0  0  0
   81.3726   48.0296   52.3140 C   0  0  0  0  0  0  0  0  0  0  0  0
   82.5088   48.8321   52.3705 C   0  0  0  0  0  0  0  0  0  0  0  0
   83.5131   48.8534   51.2171 C   0  0  0  0  0  0  0  0  0  0  0  0
   83.1228   48.6934   49.9779 C   0  0  0  0  0  0  0  0  0  0  0  0
   84.1581   48.7053   48.8539 C   0  0  0  0  0  0  0  0  0  0  0  0
   85.4355   48.8716   49.1206 C   0  0  0  0  0  0  0  0  0  0  0  0
   85.8872   49.0504   50.5626 C   0  0  0  0  0  0  0  0  0  0  0  0
   84.9910   49.0442   51.5260 C   0  0  0  0  0  0  0  0  0  0  0  0
   82.7801   49.6073   53.4912 C   0  0  0  0  0  0  0  0  0  0  0  0
   81.8992   49.6067   54.5611 C   0  0  0  0  0  0  0  0  0  0  0  0
   82.2080   50.4420   55.7826 C   0  0  0  0  0  0  0  0  0  0  0  0
   82.7710   51.8526   55.3875 C   0  0  0  0  0  0  0  0  0  0  0  0
   82.4720   52.8273   54.5358 C   0  0  0  0  0  0  0  0  0  0  0  0
   81.3040   52.8767   53.5401 C   0  0  0  0  0  0  0  0  0  0  0  0
   84.0042   52.3040   56.1025 C   0  0  0  0  0  0  0  0  0  0  0  0
   84.5301   50.3210   57.0768 C   0  0  0  0  0  0  0  0  0  0  0  0
   83.3067   49.6747   56.5664 C   0  0  0  0  0  0  0  0  0  0  0  0
   83.2494   48.1573   56.5784 C   0  0  0  0  0  0  0  0  0  0  0  0
   83.3197   53.8291   54.6052 N   0  0  0  0  0  0  0  0  0  0  0  0
   84.3049   53.5775   55.5374 N   0  0  0  0  0  0  0  0  0  0  0  0
   85.2686   49.6386   58.1177 N   0  0  0  0  0  0  0  0  0  0  0  0
   83.1710   47.0369   56.6511 N   0  0  0  0  0  0  0  0  0  0  0  0
   79.1604   46.2422   52.4088 O   0  0  0  0  0  0  0  0  0  0  0  0
   84.6692   51.6267   57.0609 O   0  0  0  0  0  0  0  0  0  0  0  0
   81.0006   50.5485   56.7490 C   0  0  0  0  0  0  0  0  0  0  0  0
   79.7882   51.3282   56.2158 C   0  0  0  0  0  0  0  0  0  0  0  0
   81.4275   51.1847   58.0811 C   0  0  0  0  0  0  0  0  0  0  0  0
   80.7706   48.7995   54.4980 C   0  0  0  0  0  0  0  0  0  0  0  0
  1  2  1  0  0  0  0
  2  3  1  0  0  0  0
  3  4  2  0  0  0  0
  4  5  1  0  0  0  0
  5  6  1  0  0  0  0
  6  7  2  0  0  0  0
  7  8  1  0  0  0  0
  8  9  2  0  0  0  0
  5 10  2  0  0  0  0
  9 10  1  0  0  0  0
  4 11  1  0  0  0  0
 11 12  2  0  0  0  0
 12 13  1  0  0  0  0
 13 14  1  0  0  0  0
 14 15  1  0  0  0  0
 15 16  1  0  0  0  0
 14 17  2  0  0  0  0
 13 19  1  0  0  0  0
 18 19  2  0  0  0  0
 19 20  1  0  0  0  0
 15 21  2  0  0  0  0
 17 22  1  0  0  0  0
 21 22  1  0  0  0  0
 18 23  1  0  0  0  0
 20 24  3  0  0  0  0
  1 25  1  0  0  0  0
 17 26  1  0  0  0  0
 18 26  1  0  0  0  0
 13 27  1  0  0  0  0
 27 28  1  0  0  0  0
 27 29  1  0  0  0  0
  2 30  2  0  0  0  0
 12 30  1  0  0  0  0
M  END
$$$$
