7XDG
  PyMOL3.1          3D                             0

 21 22  0  0  0  0  0  0  0  0999 V2000
  145.5590  156.5960  178.1030 O   0  0  0  0  0  0  0  0  0  0  0  0
  151.9280  157.7690  185.7150 O   0  0  0  0  0  0  0  0  0  0  0  0
  144.8780  159.1750  178.3620 O   0  0  0  0  0  0  0  0  0  0  0  0
  149.3120  156.3770  188.3540 O   0  0  0  0  0  0  0  0  0  0  0  0
  143.8380  159.4680  180.2760 O   0  0  0  0  0  0  0  0  0  0  0  0
  151.3620  156.1160  187.6530 O   0  0  0  0  0  0  0  0  0  0  0  0
  146.6690  156.6580  183.7260 C   0  0  0  0  0  0  0  0  0  0  0  0
  146.3660  156.6560  182.2230 C   0  0  0  0  0  0  0  0  0  0  0  0
  148.0780  156.9580  184.2560 C   0  0  0  0  0  0  0  0  0  0  0  0
  145.6900  157.7040  181.5750 C   0  0  0  0  0  0  0  0  0  0  0  0
  148.5040  156.5730  185.5430 C   0  0  0  0  0  0  0  0  0  0  0  0
  146.7580  155.5880  181.4130 C   0  0  0  0  0  0  0  0  0  0  0  0
  149.0180  157.6310  183.4760 C   0  0  0  0  0  0  0  0  0  0  0  0
  145.4020  157.7180  180.2080 C   0  0  0  0  0  0  0  0  0  0  0  0
  149.7760  156.8320  186.0560 C   0  0  0  0  0  0  0  0  0  0  0  0
  146.4920  155.5630  180.0440 C   0  0  0  0  0  0  0  0  0  0  0  0
  150.3040  157.9080  183.9480 C   0  0  0  0  0  0  0  0  0  0  0  0
  145.8160  156.6270  179.4440 C   0  0  0  0  0  0  0  0  0  0  0  0
  150.6800  157.5100  185.2330 C   0  0  0  0  0  0  0  0  0  0  0  0
  144.6630  158.8730  179.5260 C   0  0  0  0  0  0  0  0  0  0  0  0
  150.2070  156.3980  187.4720 C   0  0  0  0  0  0  0  0  0  0  0  0
  7  8  1  0  0  0  0
  7  9  1  0  0  0  0
  8 10  1  0  0  0  0
  9 11  2  0  0  0  0
  8 12  2  0  0  0  0
  9 13  1  0  0  0  0
 10 14  2  0  0  0  0
 11 15  1  0  0  0  0
 12 16  1  0  0  0  0
 13 17  2  0  0  0  0
  1 18  1  0  0  0  0
 14 18  1  0  0  0  0
 16 18  2  0  0  0  0
  2 19  1  0  0  0  0
 15 19  2  0  0  0  0
 17 19  1  0  0  0  0
  3 20  2  0  0  0  0
  5 20  1  0  0  0  0
 14 20  1  0  0  0  0
  4 21  1  0  0  0  0
  6 21  2  0  0  0  0
 15 21  1  0  0  0  0
M  END
$$$$
