7XDG
  PyMOL3.1          3D                             0

 21 22  0  0  0  0  0  0  0  0999 V2000
  169.3190  158.2890  178.0970 O   0  0  0  0  0  0  0  0  0  0  0  0
  162.9430  157.1170  185.7050 O   0  0  0  0  0  0  0  0  0  0  0  0
  169.9990  155.7090  178.3580 O   0  0  0  0  0  0  0  0  0  0  0  0
  165.5580  158.5090  188.3460 O   0  0  0  0  0  0  0  0  0  0  0  0
  171.0380  155.4170  180.2730 O   0  0  0  0  0  0  0  0  0  0  0  0
  163.5080  158.7710  187.6430 O   0  0  0  0  0  0  0  0  0  0  0  0
  168.2040  158.2280  183.7200 C   0  0  0  0  0  0  0  0  0  0  0  0
  168.5080  158.2290  182.2180 C   0  0  0  0  0  0  0  0  0  0  0  0
  166.7950  157.9270  184.2490 C   0  0  0  0  0  0  0  0  0  0  0  0
  169.1850  157.1810  181.5700 C   0  0  0  0  0  0  0  0  0  0  0  0
  166.3680  158.3130  185.5360 C   0  0  0  0  0  0  0  0  0  0  0  0
  168.1170  159.2970  181.4070 C   0  0  0  0  0  0  0  0  0  0  0  0
  165.8560  157.2550  183.4680 C   0  0  0  0  0  0  0  0  0  0  0  0
  169.4740  157.1670  180.2030 C   0  0  0  0  0  0  0  0  0  0  0  0
  165.0950  158.0540  186.0480 C   0  0  0  0  0  0  0  0  0  0  0  0
  168.3840  159.3220  180.0380 C   0  0  0  0  0  0  0  0  0  0  0  0
  164.5690  156.9770  183.9390 C   0  0  0  0  0  0  0  0  0  0  0  0
  169.0610  158.2580  179.4390 C   0  0  0  0  0  0  0  0  0  0  0  0
  164.1920  157.3760  185.2240 C   0  0  0  0  0  0  0  0  0  0  0  0
  170.2140  156.0110  179.5220 C   0  0  0  0  0  0  0  0  0  0  0  0
  164.6640  158.4880  187.4630 C   0  0  0  0  0  0  0  0  0  0  0  0
  7  8  1  0  0  0  0
  7  9  1  0  0  0  0
  8 10  1  0  0  0  0
  9 11  2  0  0  0  0
  8 12  2  0  0  0  0
  9 13  1  0  0  0  0
 10 14  2  0  0  0  0
 11 15  1  0  0  0  0
 12 16  1  0  0  0  0
 13 17  2  0  0  0  0
  1 18  1  0  0  0  0
 14 18  1  0  0  0  0
 16 18  2  0  0  0  0
  2 19  1  0  0  0  0
 15 19  2  0  0  0  0
 17 19  1  0  0  0  0
  3 20  2  0  0  0  0
  5 20  1  0  0  0  0
 14 20  1  0  0  0  0
  4 21  1  0  0  0  0
  6 21  2  0  0  0  0
 15 21  1  0  0  0  0
M  END
$$$$
