7QN9
  PyMOL3.1          3D                             0

  8  8  0  0  0  0  0  0  0  0999 V2000
  119.2450  149.1950  103.9230 N   0  0  0  0  0  0  0  0  0  0  0  0
  120.1470  150.1650  104.5490 C   0  0  0  0  0  0  0  0  0  0  0  0
  121.3930  150.3170  103.6600 C   0  0  0  0  0  0  0  0  0  0  0  0
  122.3730  151.3000  104.2160 C   0  0  0  0  0  0  0  0  0  0  0  0
  122.7460  151.5040  105.5070 C   0  0  0  0  0  0  0  0  0  0  0  0
  123.0610  152.1810  103.4000 N   0  0  0  0  0  0  0  0  0  0  0  0
  123.8250  152.8880  104.2180 C   0  0  0  0  0  0  0  0  0  0  0  0
  123.6670  152.5140  105.4930 N   0  0  0  0  0  0  0  0  0  0  0  0
  1  2  1  0  0  0  0
  2  3  1  0  0  0  0
  3  4  1  0  0  0  0
  4  5  2  0  0  0  0
  4  6  1  0  0  0  0
  6  7  2  0  0  0  0
  5  8  1  0  0  0  0
  7  8  1  0  0  0  0
M  END
$$$$
