7F83
  PyMOL3.1          3D                             0

 37 43  0  0  0  0  0  0  0  0999 V2000
   14.4440   -1.0950   37.8730 C   0  0  0  0  0  0  0  0  0  0  0  0
   14.2280   -1.0060   39.3830 C   0  0  0  0  0  0  0  0  0  0  0  0
   15.1550   -0.4880   40.1630 N   0  0  0  0  0  0  0  0  0  0  0  0
   14.9890   -0.4040   41.4730 C   0  0  0  0  0  0  0  0  0  0  0  0
   13.8880   -0.8310   42.0660 N   0  0  0  0  0  0  0  0  0  0  0  0
   12.9110   -1.3290   41.3300 C   0  0  0  0  0  0  0  0  0  0  0  0
   13.0520   -1.4650   39.9550 C   0  0  0  0  0  0  0  0  0  0  0  0
   11.7590   -1.8120   41.9390 C   0  0  0  0  0  0  0  0  0  0  0  0
   11.9080   -2.3390   43.2230 C   0  0  0  0  0  0  0  0  0  0  0  0
   10.8090   -2.8780   43.8720 C   0  0  0  0  0  0  0  0  0  0  0  0
    9.5460   -2.8880   43.2400 C   0  0  0  0  0  0  0  0  0  0  0  0
    9.3960   -2.3880   41.9490 C   0  0  0  0  0  0  0  0  0  0  0  0
   10.5170   -1.8410   41.2890 C   0  0  0  0  0  0  0  0  0  0  0  0
    7.9160   -2.5510   41.5150 C   0  0  0  0  0  0  0  0  0  0  0  0
    7.1710   -3.0600   42.7360 C   0  0  0  0  0  0  0  0  0  0  0  0
    8.2230   -3.4710   43.7560 C   0  0  0  0  0  0  0  0  0  0  0  0
    8.0600   -4.5580   43.6960 N   0  0  0  0  0  0  0  0  0  0  0  0
    6.9010   -5.0900   44.3300 C   0  0  0  0  0  0  0  0  0  0  0  0
    7.7250   -6.0860   44.9390 C   0  0  0  0  0  0  0  0  0  0  0  0
    8.8420   -5.2460   44.6770 C   0  0  0  0  0  0  0  0  0  0  0  0
    8.2720   -7.3760   44.4550 C   0  0  0  0  0  0  0  0  0  0  0  0
    7.3940   -8.5620   44.8560 C   0  0  0  0  0  0  0  0  0  0  0  0
    7.0460   -8.5620   46.3170 N   0  0  0  0  0  0  0  0  0  0  0  0
    6.6200   -7.2150   46.8070 C   0  0  0  0  0  0  0  0  0  0  0  0
    7.6000   -6.1170   46.4120 C   0  0  0  0  0  0  0  0  0  0  0  0
    7.1070   -9.7210   47.2000 C   0  0  0  0  0  0  0  0  0  0  0  0
    7.4420  -10.7870   46.7990 O   0  0  0  0  0  0  0  0  0  0  0  0
    6.7110   -9.5070   48.6740 C   0  0  0  0  0  0  0  0  0  0  0  0
    5.1840   -9.5860   48.7300 C   0  0  0  0  0  0  0  0  0  0  0  0
    4.4660  -10.6610   48.4270 N   0  0  0  0  0  0  0  0  0  0  0  0
    3.1780  -10.3370   48.5760 C   0  0  0  0  0  0  0  0  0  0  0  0
    3.0560   -9.0920   48.9560 N   0  0  0  0  0  0  0  0  0  0  0  0
    4.3020   -8.5680   49.0610 C   0  0  0  0  0  0  0  0  0  0  0  0
    1.8050   -8.6170   49.1480 C   0  0  0  0  0  0  0  0  0  0  0  0
    0.7950   -9.5220   48.9200 C   0  0  0  0  0  0  0  0  0  0  0  0
    1.5740  -10.9780   48.4440 S   0  0  0  0  0  0  0  0  0  0  0  0
   -0.7020   -9.3450   49.0270 C   0  0  0  0  0  0  0  0  0  0  0  0
  1  2  1  0  0  0  0
  2  3  1  0  0  0  0
  3  4  2  0  0  0  0
  4  5  1  0  0  0  0
  5  6  2  0  0  0  0
  2  7  2  0  0  0  0
  6  7  1  0  0  0  0
  6  8  1  0  0  0  0
  8  9  1  0  0  0  0
  9 10  2  0  0  0  0
 10 11  1  0  0  0  0
 11 12  2  0  0  0  0
  8 13  2  0  0  0  0
 12 13  1  0  0  0  0
 12 14  1  0  0  0  0
 14 15  1  0  0  0  0
 11 16  1  0  0  0  0
 15 16  1  0  0  0  0
 16 17  1  0  0  0  0
 17 18  1  0  0  0  0
 18 19  1  0  0  0  0
 17 20  1  0  0  0  0
 19 20  1  0  0  0  0
 19 21  1  0  0  0  0
 21 22  1  0  0  0  0
 22 23  1  0  0  0  0
 23 24  1  0  0  0  0
 19 25  1  0  0  0  0
 24 25  1  0  0  0  0
 23 26  1  0  0  0  0
 26 27  2  0  0  0  0
 26 28  1  0  0  0  0
 28 29  1  0  0  0  0
 29 30  1  0  0  0  0
 30 31  2  0  0  0  0
 31 32  1  0  0  0  0
 29 33  2  0  0  0  0
 32 33  1  0  0  0  0
 32 34  1  0  0  0  0
 34 35  2  0  0  0  0
 31 36  1  0  0  0  0
 35 36  1  0  0  0  0
 35 37  1  0  0  0  0
M  END
$$$$
