6ZG9
  PyMOL3.1          3D                             0

 24 27  0  0  0  0  0  0  0  0999 V2000
   -7.2920    9.6680    8.3480 C   0  0  0  0  0  0  0  0  0  0  0  0
   -7.5690    9.6380   10.5620 N   0  0  0  0  0  0  0  0  0  0  0  0
  -10.3540   16.5520    2.9210 O   0  0  0  0  0  0  0  0  0  0  0  0
   -6.8010    9.2650    7.1160 C   0  0  0  0  0  0  0  0  0  0  0  0
   -8.1410   10.7180    8.7130 N   0  0  0  0  0  0  0  0  0  0  0  0
   -8.9330   11.5100   10.7710 O   0  0  0  0  0  0  0  0  0  0  0  0
   -5.9300    8.1830    7.0510 C   0  0  0  0  0  0  0  0  0  0  0  0
   -9.2690   13.1510    5.2830 N   0  0  0  0  0  0  0  0  0  0  0  0
   -5.5940    7.4860    8.2120 C   0  0  0  0  0  0  0  0  0  0  0  0
   -6.0830    7.8750    9.4490 C   0  0  0  0  0  0  0  0  0  0  0  0
   -6.9340    8.9890    9.5160 C   0  0  0  0  0  0  0  0  0  0  0  0
   -8.2810   10.7140   10.1000 C   0  0  0  0  0  0  0  0  0  0  0  0
   -8.7790   11.7120    7.8130 C   0  0  0  0  0  0  0  0  0  0  0  0
   -7.7920   12.7640    7.3080 C   0  0  0  0  0  0  0  0  0  0  0  0
   -8.4870   13.7830    6.4210 C   0  0  0  0  0  0  0  0  0  0  0  0
  -10.2170   12.0970    5.7820 C   0  0  0  0  0  0  0  0  0  0  0  0
   -9.5390   11.0560    6.6580 C   0  0  0  0  0  0  0  0  0  0  0  0
  -10.0090   14.1350    4.4540 C   0  0  0  0  0  0  0  0  0  0  0  0
   -9.4410   14.3170    3.0510 C   0  0  0  0  0  0  0  0  0  0  0  0
  -10.2620   15.2970    2.2500 C   0  0  0  0  0  0  0  0  0  0  0  0
  -11.0850   16.4150    4.1360 C   0  0  0  0  0  0  0  0  0  0  0  0
  -10.3700   15.4830    5.0900 C   0  0  0  0  0  0  0  0  0  0  0  0
   -5.3740    7.7290    5.7280 C   0  0  0  0  0  0  0  0  0  0  0  0
   -5.7190    7.1950   10.5510 F   0  0  0  0  0  0  0  0  0  0  0  0
  1  4  1  0  0  0  0
  1  5  1  0  0  0  0
  4  7  2  0  0  0  0
  7  9  1  0  0  0  0
  9 10  2  0  0  0  0
  1 11  2  0  0  0  0
  2 11  1  0  0  0  0
 10 11  1  0  0  0  0
  2 12  1  0  0  0  0
  5 12  1  0  0  0  0
  6 12  2  0  0  0  0
  5 13  1  0  0  0  0
 13 14  1  0  0  0  0
  8 15  1  0  0  0  0
 14 15  1  0  0  0  0
  8 16  1  0  0  0  0
 13 17  1  0  0  0  0
 16 17  1  0  0  0  0
  8 18  1  0  0  0  0
 18 19  1  0  0  0  0
  3 20  1  0  0  0  0
 19 20  1  0  0  0  0
  3 21  1  0  0  0  0
 18 22  1  0  0  0  0
 21 22  1  0  0  0  0
  7 23  1  0  0  0  0
 10 24  1  0  0  0  0
M  END
$$$$
