8TZ7
  PyMOL3.1          3D                             0

126129  0  0  0  0  0  0  0  0999 V2000
  149.4100  150.7770  144.4370 C   0  0  0  0  0  0  0  0  0  0  0  0
  149.1120  149.7690  143.3310 C   0  0  0  0  0  0  0  0  0  0  0  0
  147.8800  148.9780  143.6410 C   0  0  0  0  0  0  0  0  0  0  0  0
  150.3220  148.8440  143.0550 C   0  0  0  0  0  0  0  0  0  0  0  0
  150.6110  148.0150  143.8100 O   0  0  0  0  0  0  0  0  0  0  0  0
  151.0980  149.0260  141.8100 O   0  0  0  0  0  0  0  0  0  0  0  0
  151.9750  147.9170  141.4810 C   0  0  0  0  0  0  0  0  0  0  0  0
  152.2140  147.9390  139.9710 C   0  0  0  0  0  0  0  0  0  0  0  0
  152.9960  149.2190  139.5670 C   0  0  0  0  0  0  0  0  0  0  0  0
  152.5680  149.4540  138.0470 C   0  0  0  0  0  0  0  0  0  0  0  0
  151.4170  148.8860  137.9060 C   0  0  0  0  0  0  0  0  0  0  0  0
  151.0760  148.0520  139.3260 O   0  0  0  0  0  0  0  0  0  0  0  0
  150.3980  149.8810  137.6720 N   0  0  0  0  0  0  0  0  0  0  0  0
  149.6430  150.4120  138.8010 C   0  0  0  0  0  0  0  0  0  0  0  0
  148.5850  151.4370  138.5780 C   0  0  0  0  0  0  0  0  0  0  0  0
  148.2990  151.9190  137.1870 C   0  0  0  0  0  0  0  0  0  0  0  0
  149.0460  151.3910  136.0660 N   0  0  0  0  0  0  0  0  0  0  0  0
  150.1090  150.3610  136.2930 C   0  0  0  0  0  0  0  0  0  0  0  0
  150.7090  149.9380  135.3880 O   0  0  0  0  0  0  0  0  0  0  0  0
  147.2760  152.9080  136.9730 N   0  0  0  0  0  0  0  0  0  0  0  0
  146.5360  153.4280  138.0900 O   0  0  0  0  0  0  0  0  0  0  0  0
  153.5380  148.8130  137.1630 O   0  0  0  0  0  0  0  0  0  0  0  0
  154.2980  149.0190  139.6570 O   0  0  0  0  0  0  0  0  0  0  0  0
  148.6250  151.4850  144.4880 H   0  0  0  0  0  0  0  0  0  0  0  0
  150.3250  151.2750  144.2240 H   0  0  0  0  0  0  0  0  0  0  0  0
  149.4950  150.2360  145.4280 H   0  0  0  0  0  0  0  0  0  0  0  0
  148.9210  150.3400  142.4020 H   0  0  0  0  0  0  0  0  0  0  0  0
  147.7320  148.2150  142.8710 H   0  0  0  0  0  0  0  0  0  0  0  0
  146.9900  149.6630  143.6660 H   0  0  0  0  0  0  0  0  0  0  0  0
  147.9960  148.4970  144.6100 H   0  0  0  0  0  0  0  0  0  0  0  0
  151.5090  146.9720  141.7740 H   0  0  0  0  0  0  0  0  0  0  0  0
  152.8980  148.0350  141.9920 H   0  0  0  0  0  0  0  0  0  0  0  0
  152.7390  147.0580  139.6450 H   0  0  0  0  0  0  0  0  0  0  0  0
  152.6790  150.0820  140.2110 H   0  0  0  0  0  0  0  0  0  0  0  0
  152.4820  150.5470  137.8290 H   0  0  0  0  0  0  0  0  0  0  0  0
  151.4550  148.1520  137.0280 H   0  0  0  0  0  0  0  0  0  0  0  0
  149.8530  150.0640  139.7990 H   0  0  0  0  0  0  0  0  0  0  0  0
  148.0140  151.8410  139.4350 H   0  0  0  0  0  0  0  0  0  0  0  0
  147.0780  153.2380  136.0400 H   0  0  0  0  0  0  0  0  0  0  0  0
  145.6550  153.2350  137.9860 H   0  0  0  0  0  0  0  0  0  0  0  0
  154.0020  149.4510  136.6960 H   0  0  0  0  0  0  0  0  0  0  0  0
  154.7740  149.7810  139.2720 H   0  0  0  0  0  0  0  0  0  0  0  0
  143.6470  122.3950  144.3680 C   0  0  0  0  0  0  0  0  0  0  0  0
  142.9230  123.1520  143.2570 C   0  0  0  0  0  0  0  0  0  0  0  0
  142.8510  124.6150  143.5620 C   0  0  0  0  0  0  0  0  0  0  0  0
  141.5200  122.5620  142.9810 C   0  0  0  0  0  0  0  0  0  0  0  0
  140.6550  122.7260  143.7340 O   0  0  0  0  0  0  0  0  0  0  0  0
  141.2940  121.7930  141.7380 O   0  0  0  0  0  0  0  0  0  0  0  0
  139.8960  121.5840  141.4080 C   0  0  0  0  0  0  0  0  0  0  0  0
  139.7990  121.3600  139.8980 C   0  0  0  0  0  0  0  0  0  0  0  0
  140.5210  120.0430  139.5000 C   0  0  0  0  0  0  0  0  0  0  0  0
  140.9400  120.2910  137.9810 C   0  0  0  0  0  0  0  0  0  0  0  0
  141.0210  121.5710  137.8340 C   0  0  0  0  0  0  0  0  0  0  0  0
  140.4650  122.2880  139.2510 O   0  0  0  0  0  0  0  0  0  0  0  0
  142.3920  121.9590  137.6020 N   0  0  0  0  0  0  0  0  0  0  0  0
  143.2260  122.3540  138.7320 C   0  0  0  0  0  0  0  0  0  0  0  0
  144.6430  122.7600  138.5090 C   0  0  0  0  0  0  0  0  0  0  0  0
  145.2050  122.7630  137.1200 C   0  0  0  0  0  0  0  0  0  0  0  0
  144.3780  122.3740  135.9990 N   0  0  0  0  0  0  0  0  0  0  0  0
  142.9550  121.9660  136.2240 C   0  0  0  0  0  0  0  0  0  0  0  0
  142.2910  121.6520  135.3200 O   0  0  0  0  0  0  0  0  0  0  0  0
  146.5730  123.1560  136.9070 N   0  0  0  0  0  0  0  0  0  0  0  0
  147.3900  123.5430  138.0250 O   0  0  0  0  0  0  0  0  0  0  0  0
  139.9030  119.7660  137.0970 O   0  0  0  0  0  0  0  0  0  0  0  0
  139.6980  119.0140  139.5930 O   0  0  0  0  0  0  0  0  0  0  0  0
  144.6530  122.7220  144.4200 H   0  0  0  0  0  0  0  0  0  0  0  0
  143.6230  121.3520  144.1600 H   0  0  0  0  0  0  0  0  0  0  0  0
  143.1340  122.5950  145.3580 H   0  0  0  0  0  0  0  0  0  0  0  0
  143.5150  123.0290  142.3300 H   0  0  0  0  0  0  0  0  0  0  0  0
  142.2670  125.1210  142.7880 H   0  0  0  0  0  0  0  0  0  0  0  0
  143.8890  125.0440  143.5910 H   0  0  0  0  0  0  0  0  0  0  0  0
  142.3710  124.7570  144.5280 H   0  0  0  0  0  0  0  0  0  0  0  0
  139.3070  122.4600  141.6970 H   0  0  0  0  0  0  0  0  0  0  0  0
  139.5380  120.7260  141.9200 H   0  0  0  0  0  0  0  0  0  0  0  0
  138.7740  121.3420  139.5700 H   0  0  0  0  0  0  0  0  0  0  0  0
  141.4250  119.8910  140.1470 H   0  0  0  0  0  0  0  0  0  0  0  0
  141.9310  119.8200  137.7660 H   0  0  0  0  0  0  0  0  0  0  0  0
  140.3670  121.9010  136.9540 H   0  0  0  0  0  0  0  0  0  0  0  0
  142.8180  122.3490  139.7290 H   0  0  0  0  0  0  0  0  0  0  0  0
  145.2750  123.0570  139.3670 H   0  0  0  0  0  0  0  0  0  0  0  0
  146.9590  123.1610  135.9750 H   0  0  0  0  0  0  0  0  0  0  0  0
  147.6610  124.4040  137.9180 H   0  0  0  0  0  0  0  0  0  0  0  0
  140.2260  119.0450  136.6320 H   0  0  0  0  0  0  0  0  0  0  0  0
  140.1200  118.2210  139.2050 H   0  0  0  0  0  0  0  0  0  0  0  0
  121.6430  141.6180  144.3500 C   0  0  0  0  0  0  0  0  0  0  0  0
  122.6600  141.8690  143.2390 C   0  0  0  0  0  0  0  0  0  0  0  0
  123.9640  141.2010  143.5420 C   0  0  0  0  0  0  0  0  0  0  0  0
  122.8490  143.3800  142.9650 C   0  0  0  0  0  0  0  0  0  0  0  0
  123.4230  144.0460  143.7180 O   0  0  0  0  0  0  0  0  0  0  0  0
  122.2940  143.9620  141.7230 O   0  0  0  0  0  0  0  0  0  0  0  0
  122.8110  145.2770  141.3940 C   0  0  0  0  0  0  0  0  0  0  0  0
  122.6630  145.4760  139.8850 C   0  0  0  0  0  0  0  0  0  0  0  0
  121.1620  145.5080  139.4880 C   0  0  0  0  0  0  0  0  0  0  0  0
  121.1660  145.0230  137.9680 C   0  0  0  0  0  0  0  0  0  0  0  0
  122.2350  144.3140  137.8200 C   0  0  0  0  0  0  0  0  0  0  0  0
  123.1350  144.4370  139.2350 O   0  0  0  0  0  0  0  0  0  0  0  0
  121.8870  142.9330  137.5860 N   0  0  0  0  0  0  0  0  0  0  0  0
  121.8130  142.0120  138.7140 C   0  0  0  0  0  0  0  0  0  0  0  0
  121.4580  140.5820  138.4900 C   0  0  0  0  0  0  0  0  0  0  0  0
  121.1790  140.0940  137.1000 C   0  0  0  0  0  0  0  0  0  0  0  0
  121.2530  141.0070  135.9800 N   0  0  0  0  0  0  0  0  0  0  0  0
  121.6100  142.4440  136.2080 C   0  0  0  0  0  0  0  0  0  0  0  0
  121.6700  143.1770  135.3040 O   0  0  0  0  0  0  0  0  0  0  0  0
  120.8370  138.7140  136.8860 N   0  0  0  0  0  0  0  0  0  0  0  0
  120.7650  137.8110  138.0020 O   0  0  0  0  0  0  0  0  0  0  0  0
  121.2280  146.1850  137.0860 O   0  0  0  0  0  0  0  0  0  0  0  0
  120.6810  146.7340  139.5830 O   0  0  0  0  0  0  0  0  0  0  0  0
  121.4290  140.5820  144.4040 H   0  0  0  0  0  0  0  0  0  0  0  0
  120.7500  142.1550  144.1410 H   0  0  0  0  0  0  0  0  0  0  0  0
  122.0720  141.9660  145.3390 H   0  0  0  0  0  0  0  0  0  0  0  0
  122.2570  141.4180  142.3120 H   0  0  0  0  0  0  0  0  0  0  0  0
  124.6940  141.4590  142.7690 H   0  0  0  0  0  0  0  0  0  0  0  0
  123.8200  140.0870  143.5660 H   0  0  0  0  0  0  0  0  0  0  0  0
  124.3260  141.5420  144.5090 H   0  0  0  0  0  0  0  0  0  0  0  0
  123.8640  145.3500  141.6820 H   0  0  0  0  0  0  0  0  0  0  0  0
  122.2460  146.0160  141.9080 H   0  0  0  0  0  0  0  0  0  0  0  0
  123.1600  146.3730  139.5580 H   0  0  0  0  0  0  0  0  0  0  0  0
  120.5790  144.7990  140.1340 H   0  0  0  0  0  0  0  0  0  0  0  0
  120.2620  144.4000  137.7540 H   0  0  0  0  0  0  0  0  0  0  0  0
  122.8480  144.7170  136.9400 H   0  0  0  0  0  0  0  0  0  0  0  0
  122.0150  142.3660  139.7110 H   0  0  0  0  0  0  0  0  0  0  0  0
  121.4010  139.8840  139.3460 H   0  0  0  0  0  0  0  0  0  0  0  0
  120.6470  138.3780  135.9530 H   0  0  0  0  0  0  0  0  0  0  0  0
  121.3880  137.1560  137.9030 H   0  0  0  0  0  0  0  0  0  0  0  0
  120.4400  146.2680  136.6250 H   0  0  0  0  0  0  0  0  0  0  0  0
  119.7800  146.7640  139.2050 H   0  0  0  0  0  0  0  0  0  0  0  0
  1  2  1  0  0  0  0
  2  3  1  0  0  0  0
  2  4  1  0  0  0  0
  4  5  2  0  0  0  0
  4  6  1  0  0  0  0
  6  7  1  0  0  0  0
  7  8  1  0  0  0  0
  8  9  1  0  0  0  0
  9 10  1  0  0  0  0
 10 11  1  0  0  0  0
  8 12  1  0  0  0  0
 11 12  1  0  0  0  0
 11 13  1  0  0  0  0
 13 14  1  0  0  0  0
 14 15  2  0  0  0  0
 15 16  1  0  0  0  0
 16 17  2  0  0  0  0
 13 18  1  0  0  0  0
 17 18  1  0  0  0  0
 18 19  2  0  0  0  0
 16 20  1  0  0  0  0
 20 21  1  0  0  0  0
 10 22  1  0  0  0  0
  9 23  1  0  0  0  0
  1 24  1  0  0  0  0
  1 25  1  0  0  0  0
  1 26  1  0  0  0  0
  2 27  1  0  0  0  0
  3 28  1  0  0  0  0
  3 29  1  0  0  0  0
  3 30  1  0  0  0  0
  7 31  1  0  0  0  0
  7 32  1  0  0  0  0
  8 33  1  0  0  0  0
  9 34  1  0  0  0  0
 10 35  1  0  0  0  0
 11 36  1  0  0  0  0
 14 37  1  0  0  0  0
 15 38  1  0  0  0  0
 20 39  1  0  0  0  0
 21 40  1  0  0  0  0
 22 41  1  0  0  0  0
 23 42  1  0  0  0  0
 43 44  1  0  0  0  0
 44 45  1  0  0  0  0
 44 46  1  0  0  0  0
 46 47  2  0  0  0  0
 46 48  1  0  0  0  0
 48 49  1  0  0  0  0
 49 50  1  0  0  0  0
 50 51  1  0  0  0  0
 51 52  1  0  0  0  0
 52 53  1  0  0  0  0
 50 54  1  0  0  0  0
 53 54  1  0  0  0  0
 53 55  1  0  0  0  0
 55 56  1  0  0  0  0
 56 57  2  0  0  0  0
 57 58  1  0  0  0  0
 58 59  2  0  0  0  0
 55 60  1  0  0  0  0
 59 60  1  0  0  0  0
 60 61  2  0  0  0  0
 58 62  1  0  0  0  0
 62 63  1  0  0  0  0
 52 64  1  0  0  0  0
 51 65  1  0  0  0  0
 43 66  1  0  0  0  0
 43 67  1  0  0  0  0
 43 68  1  0  0  0  0
 44 69  1  0  0  0  0
 45 70  1  0  0  0  0
 45 71  1  0  0  0  0
 45 72  1  0  0  0  0
 49 73  1  0  0  0  0
 49 74  1  0  0  0  0
 50 75  1  0  0  0  0
 51 76  1  0  0  0  0
 52 77  1  0  0  0  0
 53 78  1  0  0  0  0
 56 79  1  0  0  0  0
 57 80  1  0  0  0  0
 62 81  1  0  0  0  0
 63 82  1  0  0  0  0
 64 83  1  0  0  0  0
 65 84  1  0  0  0  0
 85 86  1  0  0  0  0
 86 87  1  0  0  0  0
 86 88  1  0  0  0  0
 88 89  2  0  0  0  0
 88 90  1  0  0  0  0
 90 91  1  0  0  0  0
 91 92  1  0  0  0  0
 92 93  1  0  0  0  0
 93 94  1  0  0  0  0
 94 95  1  0  0  0  0
 92 96  1  0  0  0  0
 95 96  1  0  0  0  0
 95 97  1  0  0  0  0
 97 98  1  0  0  0  0
 98 99  2  0  0  0  0
 99100  1  0  0  0  0
100101  2  0  0  0  0
 97102  1  0  0  0  0
101102  1  0  0  0  0
102103  2  0  0  0  0
100104  1  0  0  0  0
104105  1  0  0  0  0
 94106  1  0  0  0  0
 93107  1  0  0  0  0
 85108  1  0  0  0  0
 85109  1  0  0  0  0
 85110  1  0  0  0  0
 86111  1  0  0  0  0
 87112  1  0  0  0  0
 87113  1  0  0  0  0
 87114  1  0  0  0  0
 91115  1  0  0  0  0
 91116  1  0  0  0  0
 92117  1  0  0  0  0
 93118  1  0  0  0  0
 94119  1  0  0  0  0
 95120  1  0  0  0  0
 98121  1  0  0  0  0
 99122  1  0  0  0  0
104123  1  0  0  0  0
105124  1  0  0  0  0
106125  1  0  0  0  0
107126  1  0  0  0  0
M  END
$$$$
