9D3E
  PyMOL3.1          3D                             0

 31 33  0  0  0  0  0  0  0  0999 V2000
  169.4500  187.7800  166.1240 C   0  0  0  0  0  0  0  0  0  0  0  0
  168.5840  186.8750  166.6150 N   0  0  0  0  0  0  0  0  0  0  0  0
  170.4790  188.6980  164.0330 O   0  0  0  0  0  0  0  0  0  0  0  0
  169.5540  187.9940  164.7340 C   0  0  0  0  0  0  0  0  0  0  0  0
  170.5640  189.8160  167.1470 N   0  0  0  0  0  0  0  0  0  0  0  0
  170.1790  187.9290  168.2850 O   0  0  0  0  0  0  0  0  0  0  0  0
  168.7310  187.2590  163.8670 C   0  0  0  0  0  0  0  0  0  0  0  0
  168.8430  187.4850  162.4760 N   0  0  0  0  0  0  0  0  0  0  0  0
  165.5060  187.8280  162.5820 O   0  0  0  0  0  0  0  0  0  0  0  0
  167.8400  186.3340  164.3930 C   0  0  0  0  0  0  0  0  0  0  0  0
  168.7540  188.0240  159.3070 N   0  0  0  0  0  0  0  0  0  0  0  0
  165.5030  188.3920  159.3880 O   0  0  0  0  0  0  0  0  0  0  0  0
  167.8120  186.1840  165.7630 C   0  0  0  0  0  0  0  0  0  0  0  0
  169.5800  189.5330  156.1230 O   0  0  0  0  0  0  0  0  0  0  0  0
  170.1040  188.5560  167.2440 C   0  0  0  0  0  0  0  0  0  0  0  0
  170.3660  190.9340  166.2250 C   0  0  0  0  0  0  0  0  0  0  0  0
  171.5010  190.1630  168.2120 C   0  0  0  0  0  0  0  0  0  0  0  0
  167.8210  187.7380  161.6320 C   0  0  0  0  0  0  0  0  0  0  0  0
  167.8180  187.9840  160.2400 C   0  0  0  0  0  0  0  0  0  0  0  0
  166.3570  188.1500  160.2310 C   0  0  0  0  0  0  0  0  0  0  0  0
  166.3600  187.8880  161.7030 C   0  0  0  0  0  0  0  0  0  0  0  0
  168.4980  188.3300  157.9090 C   0  0  0  0  0  0  0  0  0  0  0  0
  169.3640  189.4330  157.4690 C   0  0  0  0  0  0  0  0  0  0  0  0
  168.6300  187.0720  157.0510 C   0  0  0  0  0  0  0  0  0  0  0  0
  169.9850  186.4150  157.1640 C   0  0  0  0  0  0  0  0  0  0  0  0
  170.3950  190.6180  155.9440 C   0  0  0  0  0  0  0  0  0  0  0  0
  170.6910  191.1920  157.1250 C   0  0  0  0  0  0  0  0  0  0  0  0
  170.0140  190.4120  158.1060 C   0  0  0  0  0  0  0  0  0  0  0  0
  171.5680  192.4160  157.3660 C   0  0  0  0  0  0  0  0  0  0  0  0
  171.4910  192.8840  158.8090 C   0  0  0  0  0  0  0  0  0  0  0  0
  173.0050  192.1690  156.9630 C   0  0  0  0  0  0  0  0  0  0  0  0
  1  2  1  0  0  0  0
  1  4  2  0  0  0  0
  3  4  1  0  0  0  0
  4  7  1  0  0  0  0
  7  8  1  0  0  0  0
  7 10  2  0  0  0  0
  2 13  2  0  0  0  0
 10 13  1  0  0  0  0
  1 15  1  0  0  0  0
  5 15  1  0  0  0  0
  6 15  2  0  0  0  0
  5 16  1  0  0  0  0
  5 17  1  0  0  0  0
  8 18  1  0  0  0  0
 11 19  1  0  0  0  0
 18 19  2  0  0  0  0
 12 20  2  0  0  0  0
 19 20  1  0  0  0  0
  9 21  2  0  0  0  0
 18 21  1  0  0  0  0
 20 21  1  0  0  0  0
 11 22  1  0  0  0  0
 14 23  1  0  0  0  0
 22 23  1  0  0  0  0
 22 24  1  0  0  0  0
 24 25  1  0  0  0  0
 14 26  1  0  0  0  0
 26 27  2  0  0  0  0
 23 28  2  0  0  0  0
 27 28  1  0  0  0  0
 27 29  1  0  0  0  0
 29 30  1  0  0  0  0
 29 31  1  0  0  0  0
M  END
$$$$
