8V8A
  PyMOL3.1          3D                             0

 35 36  0  0  0  0  0  0  0  0999 V2000
  128.5170  128.8140  125.0590 Cl  0  0  0  0  0  0  0  0  0  0  0  0
  131.8850  130.3320  127.2440 C   0  0  0  0  0  0  0  0  0  0  0  0
  130.7150  129.8170  126.6160 O   0  0  0  0  0  0  0  0  0  0  0  0
  129.7100  129.3680  127.4220 C   0  0  0  0  0  0  0  0  0  0  0  0
  129.7460  129.4040  128.8050 C   0  0  0  0  0  0  0  0  0  0  0  0
  128.6700  128.9350  129.5370 C   0  0  0  0  0  0  0  0  0  0  0  0
  128.5720  128.9980  130.8970 O   0  0  0  0  0  0  0  0  0  0  0  0
  129.7770  128.9270  131.6520 C   0  0  0  0  0  0  0  0  0  0  0  0
  127.5500  128.4060  128.8990 C   0  0  0  0  0  0  0  0  0  0  0  0
  126.4970  127.9800  129.7340 N   0  0  0  0  0  0  0  0  0  0  0  0
  125.3300  127.3760  129.3510 C   0  0  0  0  0  0  0  0  0  0  0  0
  125.0790  127.0230  128.2020 O   0  0  0  0  0  0  0  0  0  0  0  0
  124.4370  127.1530  130.3860 N   0  0  0  0  0  0  0  0  0  0  0  0
  123.1360  126.6700  130.3100 C   0  0  0  0  0  0  0  0  0  0  0  0
  122.4160  126.3200  129.1520 C   0  0  0  0  0  0  0  0  0  0  0  0
  121.2120  125.9540  129.5950 C   0  0  0  0  0  0  0  0  0  0  0  0
  119.9650  125.4930  128.9320 C   0  0  0  0  0  0  0  0  0  0  0  0
  121.1700  126.0500  130.9390 O   0  0  0  0  0  0  0  0  0  0  0  0
  122.4250  126.5130  131.3930 N   0  0  0  0  0  0  0  0  0  0  0  0
  127.5170  128.3660  127.5110 C   0  0  0  0  0  0  0  0  0  0  0  0
  128.5870  128.8490  126.7890 C   0  0  0  0  0  0  0  0  0  0  0  0
  132.5130  130.6140  126.5600 H   0  0  0  0  0  0  0  0  0  0  0  0
  131.6390  131.0880  127.7990 H   0  0  0  0  0  0  0  0  0  0  0  0
  132.2820  129.6360  127.7910 H   0  0  0  0  0  0  0  0  0  0  0  0
  130.4920  129.7450  129.2420 H   0  0  0  0  0  0  0  0  0  0  0  0
  129.5620  128.9830  132.5960 H   0  0  0  0  0  0  0  0  0  0  0  0
  130.2190  128.0850  131.4630 H   0  0  0  0  0  0  0  0  0  0  0  0
  130.3510  129.6670  131.4000 H   0  0  0  0  0  0  0  0  0  0  0  0
  122.7140  126.3390  128.2710 H   0  0  0  0  0  0  0  0  0  0  0  0
  119.2920  125.3210  129.6090 H   0  0  0  0  0  0  0  0  0  0  0  0
  119.6550  126.1840  128.3270 H   0  0  0  0  0  0  0  0  0  0  0  0
  120.1520  124.6800  128.4370 H   0  0  0  0  0  0  0  0  0  0  0  0
  126.7760  128.0150  127.0710 H   0  0  0  0  0  0  0  0  0  0  0  0
  126.5980  128.1140  130.5770 H   0  0  0  0  0  0  0  0  0  0  0  0
  124.7250  127.3360  131.1760 H   0  0  0  0  0  0  0  0  0  0  0  0
  2  3  1  0  0  0  0
  3  4  1  0  0  0  0
  4  5  1  0  0  0  0
  5  6  2  0  0  0  0
  6  7  1  0  0  0  0
  7  8  1  0  0  0  0
  6  9  1  0  0  0  0
  9 10  1  0  0  0  0
 10 11  1  0  0  0  0
 11 12  2  0  0  0  0
 11 13  1  0  0  0  0
 13 14  1  0  0  0  0
 14 15  1  0  0  0  0
 15 16  2  0  0  0  0
 16 17  1  0  0  0  0
 16 18  1  0  0  0  0
 14 19  2  0  0  0  0
 18 19  1  0  0  0  0
  9 20  2  0  0  0  0
  1 21  1  0  0  0  0
  4 21  2  0  0  0  0
 20 21  1  0  0  0  0
  2 22  1  0  0  0  0
  2 23  1  0  0  0  0
  2 24  1  0  0  0  0
  5 25  1  0  0  0  0
  8 26  1  0  0  0  0
  8 27  1  0  0  0  0
  8 28  1  0  0  0  0
 15 29  1  0  0  0  0
 17 30  1  0  0  0  0
 17 31  1  0  0  0  0
 17 32  1  0  0  0  0
 20 33  1  0  0  0  0
 10 34  1  0  0  0  0
 13 35  1  0  0  0  0
M  END
$$$$
