8V8A
  PyMOL3.1          3D                             0

 35 36  0  0  0  0  0  0  0  0999 V2000
  152.5150  140.5880  125.0610 Cl  0  0  0  0  0  0  0  0  0  0  0  0
  148.8990  141.3410  127.2460 C   0  0  0  0  0  0  0  0  0  0  0  0
  150.1470  141.0690  126.6180 O   0  0  0  0  0  0  0  0  0  0  0  0
  151.2240  140.8410  127.4240 C   0  0  0  0  0  0  0  0  0  0  0  0
  151.1750  140.8320  128.8070 C   0  0  0  0  0  0  0  0  0  0  0  0
  152.3210  140.5800  129.5390 C   0  0  0  0  0  0  0  0  0  0  0  0
  152.3630  140.4710  130.8990 O   0  0  0  0  0  0  0  0  0  0  0  0
  151.4300  141.2370  131.6540 C   0  0  0  0  0  0  0  0  0  0  0  0
  153.5370  140.3490  128.9010 C   0  0  0  0  0  0  0  0  0  0  0  0
  154.6400  140.0740  129.7360 N   0  0  0  0  0  0  0  0  0  0  0  0
  155.9380  139.8760  129.3520 C   0  0  0  0  0  0  0  0  0  0  0  0
  156.3490  140.0140  128.2030 O   0  0  0  0  0  0  0  0  0  0  0  0
  156.7920  139.5320  130.3870 N   0  0  0  0  0  0  0  0  0  0  0  0
  158.1280  139.1570  130.3110 C   0  0  0  0  0  0  0  0  0  0  0  0
  158.9170  139.0170  129.1520 C   0  0  0  0  0  0  0  0  0  0  0  0
  160.1060  138.6040  129.5950 C   0  0  0  0  0  0  0  0  0  0  0  0
  161.3850  138.2440  128.9320 C   0  0  0  0  0  0  0  0  0  0  0  0
  160.0830  138.5020  130.9390 O   0  0  0  0  0  0  0  0  0  0  0  0
  158.7960  138.8660  131.3930 N   0  0  0  0  0  0  0  0  0  0  0  0
  153.5880  140.3610  127.5130 C   0  0  0  0  0  0  0  0  0  0  0  0
  152.4380  140.6000  126.7910 C   0  0  0  0  0  0  0  0  0  0  0  0
  148.2250  141.4820  126.5630 H   0  0  0  0  0  0  0  0  0  0  0  0
  148.6530  140.5840  127.8010 H   0  0  0  0  0  0  0  0  0  0  0  0
  148.9870  142.1370  127.7940 H   0  0  0  0  0  0  0  0  0  0  0  0
  150.3710  140.9960  129.2440 H   0  0  0  0  0  0  0  0  0  0  0  0
  151.5710  141.0650  132.5980 H   0  0  0  0  0  0  0  0  0  0  0  0
  151.5680  142.1780  131.4650 H   0  0  0  0  0  0  0  0  0  0  0  0
  150.5310  140.9760  131.4020 H   0  0  0  0  0  0  0  0  0  0  0  0
  158.6640  139.1760  128.2720 H   0  0  0  0  0  0  0  0  0  0  0  0
  162.0310  137.9870  129.6090 H   0  0  0  0  0  0  0  0  0  0  0  0
  161.2290  137.5020  128.3270 H   0  0  0  0  0  0  0  0  0  0  0  0
  161.7120  139.0110  128.4370 H   0  0  0  0  0  0  0  0  0  0  0  0
  154.3930  140.2100  127.0730 H   0  0  0  0  0  0  0  0  0  0  0  0
  154.4790  140.0250  130.5790 H   0  0  0  0  0  0  0  0  0  0  0  0
  156.4520  139.5530  131.1770 H   0  0  0  0  0  0  0  0  0  0  0  0
  2  3  1  0  0  0  0
  3  4  1  0  0  0  0
  4  5  1  0  0  0  0
  5  6  2  0  0  0  0
  6  7  1  0  0  0  0
  7  8  1  0  0  0  0
  6  9  1  0  0  0  0
  9 10  1  0  0  0  0
 10 11  1  0  0  0  0
 11 12  2  0  0  0  0
 11 13  1  0  0  0  0
 13 14  1  0  0  0  0
 14 15  1  0  0  0  0
 15 16  2  0  0  0  0
 16 17  1  0  0  0  0
 16 18  1  0  0  0  0
 14 19  2  0  0  0  0
 18 19  1  0  0  0  0
  9 20  2  0  0  0  0
  1 21  1  0  0  0  0
  4 21  2  0  0  0  0
 20 21  1  0  0  0  0
  2 22  1  0  0  0  0
  2 23  1  0  0  0  0
  2 24  1  0  0  0  0
  5 25  1  0  0  0  0
  8 26  1  0  0  0  0
  8 27  1  0  0  0  0
  8 28  1  0  0  0  0
 15 29  1  0  0  0  0
 17 30  1  0  0  0  0
 17 31  1  0  0  0  0
 17 32  1  0  0  0  0
 20 33  1  0  0  0  0
 10 34  1  0  0  0  0
 13 35  1  0  0  0  0
M  END
$$$$
