8W34
  PyMOL3.1          3D                             0

 30 33  0  0  0  0  0  0  0  0999 V2000
  135.6520  144.5910  116.7530 C   0  0  0  0  0  0  0  0  0  0  0  0
  142.6650  146.3330  127.8320 C   0  0  0  0  0  0  0  0  0  0  0  0
  143.1010  146.0000  126.5670 C   0  0  0  0  0  0  0  0  0  0  0  0
  141.5050  144.2650  127.9930 C   0  0  0  0  0  0  0  0  0  0  0  0
  139.9190  145.3520  121.4090 C   0  0  0  0  0  0  0  0  0  0  0  0
  134.8660  146.5990  119.1020 C   0  0  0  0  0  0  0  0  0  0  0  0
  134.3240  145.2020  118.7340 C   0  0  0  0  0  0  0  0  0  0  0  0
  143.1580  144.4440  124.7540 C   0  0  0  0  0  0  0  0  0  0  0  0
  138.4880  146.0390  119.5710 C   0  0  0  0  0  0  0  0  0  0  0  0
  141.4060  144.8950  123.1550 C   0  0  0  0  0  0  0  0  0  0  0  0
  137.1050  143.6180  119.8930 C   0  0  0  0  0  0  0  0  0  0  0  0
  141.8710  145.4660  128.5350 C   0  0  0  0  0  0  0  0  0  0  0  0
  141.9420  143.9420  126.7320 C   0  0  0  0  0  0  0  0  0  0  0  0
  142.7380  144.7940  126.0160 C   0  0  0  0  0  0  0  0  0  0  0  0
  138.5890  143.0260  121.7090 C   0  0  0  0  0  0  0  0  0  0  0  0
  140.3310  144.4830  122.3890 C   0  0  0  0  0  0  0  0  0  0  0  0
  138.1810  143.9070  120.7160 C   0  0  0  0  0  0  0  0  0  0  0  0
  139.6480  143.2920  122.5440 C   0  0  0  0  0  0  0  0  0  0  0  0
  142.0270  144.0220  123.9320 N   0  0  0  0  0  0  0  0  0  0  0  0
  141.7400  146.0650  123.0940 O   0  0  0  0  0  0  0  0  0  0  0  0
  136.6300  142.4900  119.9030 O   0  0  0  0  0  0  0  0  0  0  0  0
  139.9500  142.4700  123.3910 O   0  0  0  0  0  0  0  0  0  0  0  0
  137.9530  141.8400  121.9020 O   0  0  0  0  0  0  0  0  0  0  0  0
  136.1220  146.5760  119.8570 O   0  0  0  0  0  0  0  0  0  0  0  0
  135.4220  144.2980  118.2310 C   0  0  0  0  0  0  0  0  0  0  0  0
  137.0790  145.9160  119.0540 C   0  0  0  0  0  0  0  0  0  0  0  0
  136.5700  144.5580  119.1010 N   0  0  0  0  0  0  0  0  0  0  0  0
  138.8470  145.0500  120.5860 N   0  0  0  0  0  0  0  0  0  0  0  0
  141.4710  145.7620  129.6820 F   0  0  0  0  0  0  0  0  0  0  0  0
  141.6130  142.8580  126.2370 F   0  0  0  0  0  0  0  0  0  0  0  0
  2  3  2  0  0  0  0
  6  7  1  0  0  0  0
  2 12  1  0  0  0  0
  4 12  2  0  0  0  0
  4 13  1  0  0  0  0
  3 14  1  0  0  0  0
  8 14  1  0  0  0  0
 13 14  2  0  0  0  0
  5 16  2  0  0  0  0
 10 16  1  0  0  0  0
 11 17  1  0  0  0  0
 15 17  2  0  0  0  0
 15 18  1  0  0  0  0
 16 18  1  0  0  0  0
  8 19  1  0  0  0  0
 10 19  1  0  0  0  0
 10 20  2  0  0  0  0
 11 21  2  0  0  0  0
 18 22  2  0  0  0  0
 15 23  1  0  0  0  0
  6 24  1  0  0  0  0
  1 25  1  0  0  0  0
  7 25  1  0  0  0  0
  9 26  1  0  0  0  0
 24 26  1  0  0  0  0
 11 27  1  0  0  0  0
 25 27  1  0  0  0  0
 26 27  1  0  0  0  0
  5 28  1  0  0  0  0
  9 28  1  0  0  0  0
 17 28  1  0  0  0  0
 12 29  1  0  0  0  0
 13 30  1  0  0  0  0
M  END
$$$$
