7KNW
  PyMOL3.1          3D                             0

 88 96  0  0  0  0  0  0  0  0999 V2000
  -54.0060   54.6690  -48.3020 N   0  0  0  0  0  0  0  0  0  0  0  0
  -54.2590   51.9690  -47.2430 C   0  0  0  0  0  0  0  0  0  0  0  0
  -52.2000   50.8420  -47.0550 O   0  0  0  0  0  0  0  0  0  0  0  0
  -58.0610   50.6270  -47.1520 Cl  0  0  0  0  0  0  0  0  0  0  0  0
  -55.6450   51.9300  -47.2700 C   0  0  0  0  0  0  0  0  0  0  0  0
  -56.3290   57.5240  -48.1760 N   0  0  0  0  0  0  0  0  0  0  0  0
  -52.1250   53.0630  -48.0010 O   0  0  0  0  0  0  0  0  0  0  0  0
  -53.5550   50.7920  -47.0770 C   0  0  0  0  0  0  0  0  0  0  0  0
  -55.2630   56.7850  -49.9250 N   0  0  0  0  0  0  0  0  0  0  0  0
  -53.0520   54.0100  -46.1020 O   0  0  0  0  0  0  0  0  0  0  0  0
  -56.3380   50.7160  -47.1310 C   0  0  0  0  0  0  0  0  0  0  0  0
  -56.6860   58.2700  -49.1130 N   0  0  0  0  0  0  0  0  0  0  0  0
  -54.2380   49.5790  -46.9490 C   0  0  0  0  0  0  0  0  0  0  0  0
  -55.6290   49.5330  -46.9660 C   0  0  0  0  0  0  0  0  0  0  0  0
  -51.3530   49.9220  -46.3470 C   0  0  0  0  0  0  0  0  0  0  0  0
  -55.4660   56.5930  -48.6130 C   0  0  0  0  0  0  0  0  0  0  0  0
  -54.9120   55.6270  -47.7680 C   0  0  0  0  0  0  0  0  0  0  0  0
  -56.7500   57.6250  -46.9140 C   0  0  0  0  0  0  0  0  0  0  0  0
  -55.3490   55.6930  -46.4320 C   0  0  0  0  0  0  0  0  0  0  0  0
  -56.2570   56.6870  -46.0250 C   0  0  0  0  0  0  0  0  0  0  0  0
  -56.0460   57.8490  -50.2270 C   0  0  0  0  0  0  0  0  0  0  0  0
  -53.3590   53.4730  -47.3990 S   0  0  0  0  0  0  0  0  0  0  0  0
  -53.8990   -3.1110  -73.3990 N   0  0  0  0  0  0  0  0  0  0  0  0
  -54.1060   -0.4900  -74.5460 C   0  0  0  0  0  0  0  0  0  0  0  0
  -52.1160    0.8110  -74.6820 O   0  0  0  0  0  0  0  0  0  0  0  0
  -57.9760    0.4420  -74.7500 Cl  0  0  0  0  0  0  0  0  0  0  0  0
  -55.4880   -0.5480  -74.5620 C   0  0  0  0  0  0  0  0  0  0  0  0
  -56.1610   -5.9940  -73.3100 N   0  0  0  0  0  0  0  0  0  0  0  0
  -51.9390   -1.6220  -73.7080 O   0  0  0  0  0  0  0  0  0  0  0  0
  -53.4750    0.7400  -74.7130 C   0  0  0  0  0  0  0  0  0  0  0  0
  -54.8620   -5.2810  -71.7040 N   0  0  0  0  0  0  0  0  0  0  0  0
  -52.9310   -2.5440  -75.6210 O   0  0  0  0  0  0  0  0  0  0  0  0
  -56.2660    0.5960  -74.7310 C   0  0  0  0  0  0  0  0  0  0  0  0
  -56.3380   -6.7750  -72.3400 N   0  0  0  0  0  0  0  0  0  0  0  0
  -54.2580    1.8920  -74.8750 C   0  0  0  0  0  0  0  0  0  0  0  0
  -55.6520    1.8300  -74.8870 C   0  0  0  0  0  0  0  0  0  0  0  0
  -51.3810    1.6930  -75.5280 C   0  0  0  0  0  0  0  0  0  0  0  0
  -55.2690   -5.0490  -72.9600 C   0  0  0  0  0  0  0  0  0  0  0  0
  -54.8770   -4.0400  -73.8440 C   0  0  0  0  0  0  0  0  0  0  0  0
  -56.7580   -6.0470  -74.5340 C   0  0  0  0  0  0  0  0  0  0  0  0
  -55.4770   -4.0650  -75.1260 C   0  0  0  0  0  0  0  0  0  0  0  0
  -56.4250   -5.0560  -75.4650 C   0  0  0  0  0  0  0  0  0  0  0  0
  -55.5470   -6.3780  -71.3160 C   0  0  0  0  0  0  0  0  0  0  0  0
  -53.1960   -1.9670  -74.3260 S   0  0  0  0  0  0  0  0  0  0  0  0
  -66.7240   52.4850  -71.2330 N   0  0  0  0  0  0  0  0  0  0  0  0
  -67.0550   51.3040  -73.9060 C   0  0  0  0  0  0  0  0  0  0  0  0
  -65.0610   50.9960  -75.0600 O   0  0  0  0  0  0  0  0  0  0  0  0
  -70.8760   51.2080  -74.9160 Cl  0  0  0  0  0  0  0  0  0  0  0  0
  -68.4340   51.3380  -73.8690 C   0  0  0  0  0  0  0  0  0  0  0  0
  -68.6450   52.5910  -68.0670 N   0  0  0  0  0  0  0  0  0  0  0  0
  -64.8730   52.0540  -72.8230 O   0  0  0  0  0  0  0  0  0  0  0  0
  -66.4020   51.0350  -75.0920 C   0  0  0  0  0  0  0  0  0  0  0  0
  -67.3360   54.1420  -68.8690 N   0  0  0  0  0  0  0  0  0  0  0  0
  -66.0100   50.2080  -71.8720 O   0  0  0  0  0  0  0  0  0  0  0  0
  -69.1700   51.1420  -75.0250 C   0  0  0  0  0  0  0  0  0  0  0  0
  -68.6560   53.5370  -67.2390 N   0  0  0  0  0  0  0  0  0  0  0  0
  -67.1320   50.8390  -76.2600 C   0  0  0  0  0  0  0  0  0  0  0  0
  -68.5250   50.8850  -76.2300 C   0  0  0  0  0  0  0  0  0  0  0  0
  -64.2720   50.2180  -75.9580 C   0  0  0  0  0  0  0  0  0  0  0  0
  -67.8440   52.9180  -69.0980 C   0  0  0  0  0  0  0  0  0  0  0  0
  -67.6320   52.0640  -70.1980 C   0  0  0  0  0  0  0  0  0  0  0  0
  -69.3110   51.4130  -67.9870 C   0  0  0  0  0  0  0  0  0  0  0  0
  -68.3170   50.8240  -70.1370 C   0  0  0  0  0  0  0  0  0  0  0  0
  -69.1560   50.5140  -69.0440 C   0  0  0  0  0  0  0  0  0  0  0  0
  -67.8550   54.5270  -67.6890 C   0  0  0  0  0  0  0  0  0  0  0  0
  -66.1450   51.5340  -72.4410 S   0  0  0  0  0  0  0  0  0  0  0  0
  -41.3920   77.3420  -50.4250 N   0  0  0  0  0  0  0  0  0  0  0  0
  -41.2710   78.6100  -47.7500 C   0  0  0  0  0  0  0  0  0  0  0  0
  -39.1000   79.0540  -46.7690 O   0  0  0  0  0  0  0  0  0  0  0  0
  -44.9750   78.8340  -46.3190 Cl  0  0  0  0  0  0  0  0  0  0  0  0
  -42.6370   78.5770  -47.6540 C   0  0  0  0  0  0  0  0  0  0  0  0
  -43.4130   77.3540  -53.4810 N   0  0  0  0  0  0  0  0  0  0  0  0
  -39.3320   77.5450  -49.1740 O   0  0  0  0  0  0  0  0  0  0  0  0
  -40.4690   78.9700  -46.6560 C   0  0  0  0  0  0  0  0  0  0  0  0
  -42.2430   75.6900  -52.6610 N   0  0  0  0  0  0  0  0  0  0  0  0
  -40.3660   79.5310  -49.9000 O   0  0  0  0  0  0  0  0  0  0  0  0
  -43.2480   78.8880  -46.4450 C   0  0  0  0  0  0  0  0  0  0  0  0
  -43.5700   76.3970  -54.2730 N   0  0  0  0  0  0  0  0  0  0  0  0
  -41.0850   79.2850  -45.4560 C   0  0  0  0  0  0  0  0  0  0  0  0
  -42.4650   79.2400  -45.3460 C   0  0  0  0  0  0  0  0  0  0  0  0
  -38.0870   78.7140  -45.8140 C   0  0  0  0  0  0  0  0  0  0  0  0
  -42.6130   76.9690  -52.4670 C   0  0  0  0  0  0  0  0  0  0  0  0
  -42.2800   77.8270  -51.4180 C   0  0  0  0  0  0  0  0  0  0  0  0
  -43.9400   78.5950  -53.5830 C   0  0  0  0  0  0  0  0  0  0  0  0
  -42.8110   79.1280  -51.4940 C   0  0  0  0  0  0  0  0  0  0  0  0
  -43.6360   79.5040  -52.5670 C   0  0  0  0  0  0  0  0  0  0  0  0
  -42.8580   75.3420  -53.8130 C   0  0  0  0  0  0  0  0  0  0  0  0
  -40.5960   78.2410  -49.3100 S   0  0  0  0  0  0  0  0  0  0  0  0
  2  5  2  0  0  0  0
  2  8  1  0  0  0  0
  3  8  1  0  0  0  0
  4 11  1  0  0  0  0
  5 11  1  0  0  0  0
  6 12  1  0  0  0  0
  8 13  2  0  0  0  0
 11 14  2  0  0  0  0
 13 14  1  0  0  0  0
  3 15  1  0  0  0  0
  6 16  1  0  0  0  0
  9 16  2  0  0  0  0
  1 17  1  0  0  0  0
 16 17  1  0  0  0  0
  6 18  1  0  0  0  0
 17 19  2  0  0  0  0
 18 20  2  0  0  0  0
 19 20  1  0  0  0  0
  9 21  1  0  0  0  0
 12 21  2  0  0  0  0
  1 22  1  0  0  0  0
  2 22  1  0  0  0  0
  7 22  2  0  0  0  0
 10 22  2  0  0  0  0
 24 27  2  0  0  0  0
 24 30  1  0  0  0  0
 25 30  1  0  0  0  0
 26 33  1  0  0  0  0
 27 33  1  0  0  0  0
 28 34  1  0  0  0  0
 30 35  2  0  0  0  0
 33 36  2  0  0  0  0
 35 36  1  0  0  0  0
 25 37  1  0  0  0  0
 28 38  1  0  0  0  0
 31 38  2  0  0  0  0
 23 39  1  0  0  0  0
 38 39  1  0  0  0  0
 28 40  1  0  0  0  0
 39 41  2  0  0  0  0
 40 42  2  0  0  0  0
 41 42  1  0  0  0  0
 31 43  1  0  0  0  0
 34 43  2  0  0  0  0
 23 44  1  0  0  0  0
 24 44  1  0  0  0  0
 29 44  2  0  0  0  0
 32 44  2  0  0  0  0
 46 49  2  0  0  0  0
 46 52  1  0  0  0  0
 47 52  1  0  0  0  0
 48 55  1  0  0  0  0
 49 55  1  0  0  0  0
 50 56  1  0  0  0  0
 52 57  2  0  0  0  0
 55 58  2  0  0  0  0
 57 58  1  0  0  0  0
 47 59  1  0  0  0  0
 50 60  1  0  0  0  0
 53 60  2  0  0  0  0
 45 61  1  0  0  0  0
 60 61  1  0  0  0  0
 50 62  1  0  0  0  0
 61 63  2  0  0  0  0
 62 64  2  0  0  0  0
 63 64  1  0  0  0  0
 53 65  1  0  0  0  0
 56 65  2  0  0  0  0
 45 66  1  0  0  0  0
 46 66  1  0  0  0  0
 51 66  2  0  0  0  0
 54 66  2  0  0  0  0
 68 71  2  0  0  0  0
 68 74  1  0  0  0  0
 69 74  1  0  0  0  0
 70 77  1  0  0  0  0
 71 77  1  0  0  0  0
 72 78  1  0  0  0  0
 74 79  2  0  0  0  0
 77 80  2  0  0  0  0
 79 80  1  0  0  0  0
 69 81  1  0  0  0  0
 72 82  1  0  0  0  0
 75 82  2  0  0  0  0
 67 83  1  0  0  0  0
 82 83  1  0  0  0  0
 72 84  1  0  0  0  0
 83 85  2  0  0  0  0
 84 86  2  0  0  0  0
 85 86  1  0  0  0  0
 75 87  1  0  0  0  0
 78 87  2  0  0  0  0
 67 88  1  0  0  0  0
 68 88  1  0  0  0  0
 73 88  2  0  0  0  0
 76 88  2  0  0  0  0
M  END
$$$$
