7XUJ
  PyMOL3.1          3D                             0

 22 24  0  0  0  0  0  0  0  0999 V2000
  143.3240   89.2320  112.7070 O   0  0  0  0  0  0  0  0  0  0  0  0
  143.0320   87.8860  114.3590 O   0  0  0  0  0  0  0  0  0  0  0  0
  140.2070   93.5650  116.6340 N   0  0  0  0  0  0  0  0  0  0  0  0
  139.4460   90.2190  113.3240 N   0  0  0  0  0  0  0  0  0  0  0  0
  140.4700   92.9570  117.8230 C   0  0  0  0  0  0  0  0  0  0  0  0
  141.2270   91.8210  117.5660 C   0  0  0  0  0  0  0  0  0  0  0  0
  141.4120   91.7360  116.2320 C   0  0  0  0  0  0  0  0  0  0  0  0
  140.7870   92.8250  115.6480 C   0  0  0  0  0  0  0  0  0  0  0  0
  139.4740   94.7890  116.3700 C   0  0  0  0  0  0  0  0  0  0  0  0
  140.0830   93.3050  119.2870 C   0  0  0  0  0  0  0  0  0  0  0  0
  141.6980   90.8840  118.7160 C   0  0  0  0  0  0  0  0  0  0  0  0
  142.2150   90.6670  115.4820 C   0  0  0  0  0  0  0  0  0  0  0  0
  140.5250   92.4230  120.4140 C   0  0  0  0  0  0  0  0  0  0  0  0
  141.3280   91.2150  120.1280 C   0  0  0  0  0  0  0  0  0  0  0  0
  139.7770   96.0500  117.1690 C   0  0  0  0  0  0  0  0  0  0  0  0
  138.4460   94.8320  115.2520 C   0  0  0  0  0  0  0  0  0  0  0  0
  139.0370   97.3550  116.8740 C   0  0  0  0  0  0  0  0  0  0  0  0
  137.6990   96.1230  114.9410 C   0  0  0  0  0  0  0  0  0  0  0  0
  141.8490   89.9780  114.4150 C   0  0  0  0  0  0  0  0  0  0  0  0
  137.9990   97.3870  115.7470 C   0  0  0  0  0  0  0  0  0  0  0  0
  142.7990   88.9730  113.8000 C   0  0  0  0  0  0  0  0  0  0  0  0
  140.4710   90.1150  113.7860 C   0  0  0  0  0  0  0  0  0  0  0  0
  3  5  1  0  0  0  0
  5  6  2  0  0  0  0
  6  7  1  0  0  0  0
  3  8  1  0  0  0  0
  7  8  2  0  0  0  0
  3  9  1  0  0  0  0
  5 10  1  0  0  0  0
  6 11  1  0  0  0  0
  7 12  1  0  0  0  0
 10 13  2  0  0  0  0
 11 14  2  0  0  0  0
 13 14  1  0  0  0  0
  9 15  2  0  0  0  0
  9 16  1  0  0  0  0
 15 17  1  0  0  0  0
 16 18  2  0  0  0  0
 12 19  2  0  0  0  0
 17 20  2  0  0  0  0
 18 20  1  0  0  0  0
  1 21  2  0  0  0  0
  2 21  1  0  0  0  0
 19 21  1  0  0  0  0
  4 22  3  0  0  0  0
 19 22  1  0  0  0  0
M  END
$$$$
