7F8Y
  PyMOL3.1          3D                             0

 31 35  0  0  0  0  0  0  0  0999 V2000
    5.7230   21.3730   54.1430 N   0  0  0  0  0  0  0  0  0  0  0  0
    6.2620   21.9790   55.3390 C   0  0  0  0  0  0  0  0  0  0  0  0
    3.1480   23.6940   56.8460 C   0  0  0  0  0  0  0  0  0  0  0  0
    3.1540   20.5000   50.0540 C   0  0  0  0  0  0  0  0  0  0  0  0
    4.5320   20.2470   50.1260 C   0  0  0  0  0  0  0  0  0  0  0  0
    2.5460   21.3730   50.9780 C   0  0  0  0  0  0  0  0  0  0  0  0
    4.6990   26.0910   52.5530 C   0  0  0  0  0  0  0  0  0  0  0  0
    4.1460   26.5140   53.8140 C   0  0  0  0  0  0  0  0  0  0  0  0
   11.6450   17.3830   59.5510 C   0  0  0  0  0  0  0  0  0  0  0  0
   11.9150   18.4930   60.4180 C   0  0  0  0  0  0  0  0  0  0  0  0
    5.2860   20.8710   51.1270 C   0  0  0  0  0  0  0  0  0  0  0  0
    3.2930   21.9980   51.9780 C   0  0  0  0  0  0  0  0  0  0  0  0
    5.1220   24.7710   52.3860 C   0  0  0  0  0  0  0  0  0  0  0  0
    4.0100   25.6010   54.9080 C   0  0  0  0  0  0  0  0  0  0  0  0
   10.8060   17.5350   58.4800 C   0  0  0  0  0  0  0  0  0  0  0  0
   11.3530   19.7360   60.1960 C   0  0  0  0  0  0  0  0  0  0  0  0
    9.3220   19.3690   57.2320 C   0  0  0  0  0  0  0  0  0  0  0  0
    8.2310   21.6970   56.7590 C   0  0  0  0  0  0  0  0  0  0  0  0
    5.5390   22.3690   53.1190 C   0  0  0  0  0  0  0  0  0  0  0  0
    4.6700   21.7320   52.0360 C   0  0  0  0  0  0  0  0  0  0  0  0
    9.1540   20.7200   57.5210 C   0  0  0  0  0  0  0  0  0  0  0  0
    4.9760   23.8000   53.5090 C   0  0  0  0  0  0  0  0  0  0  0  0
    5.1030   22.2660   56.3300 C   0  0  0  0  0  0  0  0  0  0  0  0
    4.8550   21.6270   57.3630 O   0  0  0  0  0  0  0  0  0  0  0  0
    7.2120   21.1010   56.0030 N   0  0  0  0  0  0  0  0  0  0  0  0
    9.8150   21.0220   58.5830 N   0  0  0  0  0  0  0  0  0  0  0  0
    8.3250   22.8260   56.8730 O   0  0  0  0  0  0  0  0  0  0  0  0
    4.4540   24.2160   54.7180 C   0  0  0  0  0  0  0  0  0  0  0  0
   10.2200   18.8520   58.2200 C   0  0  0  0  0  0  0  0  0  0  0  0
   10.4910   19.8980   59.0400 C   0  0  0  0  0  0  0  0  0  0  0  0
    4.2650   23.3730   55.9390 N   0  0  0  0  0  0  0  0  0  0  0  0
  1  2  1  0  0  0  0
  4  5  2  0  0  0  0
  4  6  1  0  0  0  0
  7  8  1  0  0  0  0
  9 10  2  0  0  0  0
  5 11  1  0  0  0  0
  6 12  2  0  0  0  0
  7 13  2  0  0  0  0
  8 14  2  0  0  0  0
  9 15  1  0  0  0  0
 10 16  1  0  0  0  0
  1 19  2  0  0  0  0
 11 20  2  0  0  0  0
 12 20  1  0  0  0  0
 19 20  1  0  0  0  0
 17 21  2  0  0  0  0
 18 21  1  0  0  0  0
 13 22  1  0  0  0  0
 19 22  1  0  0  0  0
  2 23  1  0  0  0  0
 23 24  2  0  0  0  0
  2 25  1  0  0  0  0
 18 25  1  0  0  0  0
 21 26  1  0  0  0  0
 18 27  2  0  0  0  0
 14 28  1  0  0  0  0
 22 28  2  0  0  0  0
 15 29  2  0  0  0  0
 17 29  1  0  0  0  0
 16 30  2  0  0  0  0
 26 30  1  0  0  0  0
 29 30  1  0  0  0  0
  3 31  1  0  0  0  0
 23 31  1  0  0  0  0
 28 31  1  0  0  0  0
M  END
$$$$
