8FTQ
  PyMOL3.1          3D                             0

 29 32  0  0  0  0  0  0  0  0999 V2000
    9.9070  -24.3110   61.9850 C   0  0  0  0  0  0  0  0  0  0  0  0
   12.4180  -25.0620   58.9450 N   0  0  0  0  0  0  0  0  0  0  0  0
   14.1620  -26.3380   58.7690 O   0  0  0  0  0  0  0  0  0  0  0  0
   11.0710  -25.1450   62.0830 C   0  0  0  0  0  0  0  0  0  0  0  0
   11.6280  -28.9040   65.7920 N   0  0  0  0  0  0  0  0  0  0  0  0
   10.3230  -30.1970   64.5050 O   0  0  0  0  0  0  0  0  0  0  0  0
   11.8350  -25.3910   60.9940 C   0  0  0  0  0  0  0  0  0  0  0  0
    7.0540  -30.8930   69.8080 O   0  0  0  0  0  0  0  0  0  0  0  0
   11.5380  -24.7650   59.8230 C   0  0  0  0  0  0  0  0  0  0  0  0
   10.4800  -23.9200   59.7530 C   0  0  0  0  0  0  0  0  0  0  0  0
    9.6680  -23.7010   60.8030 C   0  0  0  0  0  0  0  0  0  0  0  0
   13.0160  -26.1320   60.8340 C   0  0  0  0  0  0  0  0  0  0  0  0
   13.2580  -25.9010   59.4710 C   0  0  0  0  0  0  0  0  0  0  0  0
   12.9600  -27.5760   61.2500 C   0  0  0  0  0  0  0  0  0  0  0  0
   13.2480  -28.0330   62.6180 C   0  0  0  0  0  0  0  0  0  0  0  0
   14.5770  -28.2910   62.9510 C   0  0  0  0  0  0  0  0  0  0  0  0
   14.8770  -28.7380   64.2240 C   0  0  0  0  0  0  0  0  0  0  0  0
   13.8610  -28.9470   65.1890 C   0  0  0  0  0  0  0  0  0  0  0  0
   12.5360  -28.7490   64.7930 C   0  0  0  0  0  0  0  0  0  0  0  0
   12.2350  -28.2830   63.5100 C   0  0  0  0  0  0  0  0  0  0  0  0
   10.5310  -29.7020   65.5790 C   0  0  0  0  0  0  0  0  0  0  0  0
    9.7060  -29.9440   66.6880 C   0  0  0  0  0  0  0  0  0  0  0  0
    8.3180  -29.9860   66.4800 C   0  0  0  0  0  0  0  0  0  0  0  0
    7.4450  -30.2680   67.5480 C   0  0  0  0  0  0  0  0  0  0  0  0
    7.9210  -30.5500   68.8210 C   0  0  0  0  0  0  0  0  0  0  0  0
    9.2960  -30.5400   69.0020 C   0  0  0  0  0  0  0  0  0  0  0  0
   10.2090  -30.2420   67.9760 C   0  0  0  0  0  0  0  0  0  0  0  0
    6.9600  -29.9310   70.8860 C   0  0  0  0  0  0  0  0  0  0  0  0
    9.1580  -24.0600   62.9660 F   0  0  0  0  0  0  0  0  0  0  0  0
  1  4  1  0  0  0  0
  4  7  2  0  0  0  0
  2  9  1  0  0  0  0
  7  9  1  0  0  0  0
  9 10  2  0  0  0  0
  1 11  2  0  0  0  0
 10 11  1  0  0  0  0
  7 12  1  0  0  0  0
  2 13  1  0  0  0  0
  3 13  2  0  0  0  0
 12 13  1  0  0  0  0
 12 14  1  0  0  0  0
 14 15  1  0  0  0  0
 15 16  2  0  0  0  0
 16 17  1  0  0  0  0
 17 18  2  0  0  0  0
  5 19  1  0  0  0  0
 18 19  1  0  0  0  0
 15 20  1  0  0  0  0
 19 20  2  0  0  0  0
  5 21  1  0  0  0  0
  6 21  2  0  0  0  0
 21 22  1  0  0  0  0
 22 23  2  0  0  0  0
 23 24  1  0  0  0  0
  8 25  1  0  0  0  0
 24 25  2  0  0  0  0
 25 26  1  0  0  0  0
 22 27  1  0  0  0  0
 26 27  2  0  0  0  0
  8 28  1  0  0  0  0
  1 29  1  0  0  0  0
M  END
$$$$
