8IZY
  PyMOL3.1          3D                             0

 46 47  0  0  0  0  0  0  0  0999 V2000
  111.5890  117.1490  105.4100 C   0  0  0  0  0  0  0  0  0  0  0  0
  110.1160  116.7580  105.4510 C   0  0  0  0  0  0  0  0  0  0  0  0
  109.1530  117.7030  105.1540 C   0  0  0  0  0  0  0  0  0  0  0  0
  107.8120  117.3660  105.1830 C   0  0  0  0  0  0  0  0  0  0  0  0
  107.4380  116.0770  105.5160 C   0  0  0  0  0  0  0  0  0  0  0  0
  108.4000  115.1260  105.8140 C   0  0  0  0  0  0  0  0  0  0  0  0
  109.7410  115.4670  105.7790 C   0  0  0  0  0  0  0  0  0  0  0  0
  110.7510  114.4730  106.0930 N   0  0  0  0  0  0  0  0  0  0  0  0
  111.2490  114.3630  107.4510 C   0  0  0  0  0  0  0  0  0  0  0  0
  110.8610  115.1150  108.2780 O   0  0  0  0  0  0  0  0  0  0  0  0
  112.1780  113.3760  107.7860 O   0  0  0  0  0  0  0  0  0  0  0  0
  112.4140  113.2660  109.1600 C   0  0  0  0  0  0  0  0  0  0  0  0
  107.9780  113.7040  106.1770 C   0  0  0  0  0  0  0  0  0  0  0  0
  106.8080  118.3710  104.8800 N   0  0  0  0  0  0  0  0  0  0  0  0
  107.1310  119.4930  104.0210 C   0  0  0  0  0  0  0  0  0  0  0  0
  107.8650  120.5470  104.8500 C   0  0  0  0  0  0  0  0  0  0  0  0
  108.4460  121.3450  105.5110 C   0  0  0  0  0  0  0  0  0  0  0  0
  105.4910  118.2990  105.4890 C   0  0  0  0  0  0  0  0  0  0  0  0
  104.4290  117.7490  104.5390 C   0  0  0  0  0  0  0  0  0  0  0  0
  104.7320  116.7260  103.6590 C   0  0  0  0  0  0  0  0  0  0  0  0
  103.7550  116.2340  102.8100 C   0  0  0  0  0  0  0  0  0  0  0  0
  102.4750  116.7610  102.8460 C   0  0  0  0  0  0  0  0  0  0  0  0
  102.1710  117.7800  103.7300 C   0  0  0  0  0  0  0  0  0  0  0  0
  103.1480  118.2720  104.5780 C   0  0  0  0  0  0  0  0  0  0  0  0
  101.5110  116.2770  102.0110 F   0  0  0  0  0  0  0  0  0  0  0  0
  112.0620  116.5350  104.8800 H   0  0  0  0  0  0  0  0  0  0  0  0
  111.9370  117.1500  106.2810 H   0  0  0  0  0  0  0  0  0  0  0  0
  111.6730  118.0080  105.0400 H   0  0  0  0  0  0  0  0  0  0  0  0
  109.4110  118.5680  104.9350 H   0  0  0  0  0  0  0  0  0  0  0  0
  106.5380  115.8470  105.5400 H   0  0  0  0  0  0  0  0  0  0  0  0
  111.0560  113.9480  105.4720 H   0  0  0  0  0  0  0  0  0  0  0  0
  113.0860  112.6280  109.3120 H   0  0  0  0  0  0  0  0  0  0  0  0
  111.6240  112.9990  109.5920 H   0  0  0  0  0  0  0  0  0  0  0  0
  112.6910  114.0970  109.4990 H   0  0  0  0  0  0  0  0  0  0  0  0
  108.1510  113.1310  105.4530 H   0  0  0  0  0  0  0  0  0  0  0  0
  107.0600  113.6910  106.3740 H   0  0  0  0  0  0  0  0  0  0  0  0
  108.4630  113.4150  106.9280 H   0  0  0  0  0  0  0  0  0  0  0  0
  107.6810  119.2050  103.3170 H   0  0  0  0  0  0  0  0  0  0  0  0
  106.3400  119.8610  103.6740 H   0  0  0  0  0  0  0  0  0  0  0  0
  108.8920  121.9580  106.0200 H   0  0  0  0  0  0  0  0  0  0  0  0
  105.5280  117.7540  106.2520 H   0  0  0  0  0  0  0  0  0  0  0  0
  105.2360  119.1630  105.7520 H   0  0  0  0  0  0  0  0  0  0  0  0
  105.5900  116.3720  103.6340 H   0  0  0  0  0  0  0  0  0  0  0  0
  103.9580  115.5490  102.2160 H   0  0  0  0  0  0  0  0  0  0  0  0
  101.3130  118.1340  103.7540 H   0  0  0  0  0  0  0  0  0  0  0  0
  102.9440  118.9570  105.1720 H   0  0  0  0  0  0  0  0  0  0  0  0
  1  2  1  0  0  0  0
  2  3  1  0  0  0  0
  3  4  2  0  0  0  0
  4  5  1  0  0  0  0
  5  6  2  0  0  0  0
  2  7  2  0  0  0  0
  6  7  1  0  0  0  0
  7  8  1  0  0  0  0
  8  9  1  0  0  0  0
  9 10  2  0  0  0  0
  9 11  1  0  0  0  0
 11 12  1  0  0  0  0
  6 13  1  0  0  0  0
  4 14  1  0  0  0  0
 14 15  1  0  0  0  0
 15 16  1  0  0  0  0
 16 17  3  0  0  0  0
 14 18  1  0  0  0  0
 18 19  1  0  0  0  0
 19 20  2  0  0  0  0
 20 21  1  0  0  0  0
 21 22  2  0  0  0  0
 22 23  1  0  0  0  0
 19 24  1  0  0  0  0
 23 24  2  0  0  0  0
 22 25  1  0  0  0  0
  1 26  1  0  0  0  0
  1 27  1  0  0  0  0
  1 28  1  0  0  0  0
  3 29  1  0  0  0  0
  5 30  1  0  0  0  0
  8 31  1  0  0  0  0
 12 32  1  0  0  0  0
 12 33  1  0  0  0  0
 12 34  1  0  0  0  0
 13 35  1  0  0  0  0
 13 36  1  0  0  0  0
 13 37  1  0  0  0  0
 15 38  1  0  0  0  0
 15 39  1  0  0  0  0
 17 40  1  0  0  0  0
 18 41  1  0  0  0  0
 18 42  1  0  0  0  0
 20 43  1  0  0  0  0
 21 44  1  0  0  0  0
 23 45  1  0  0  0  0
 24 46  1  0  0  0  0
M  END
$$$$
