8IZY
  PyMOL3.1          3D                             0

 46 47  0  0  0  0  0  0  0  0999 V2000
  145.2800  122.0790  112.2680 C   0  0  0  0  0  0  0  0  0  0  0  0
  145.1490  123.5290  111.8110 C   0  0  0  0  0  0  0  0  0  0  0  0
  144.4270  123.8310  110.6680 C   0  0  0  0  0  0  0  0  0  0  0  0
  144.2940  125.1440  110.2420 C   0  0  0  0  0  0  0  0  0  0  0  0
  144.9030  126.1510  110.9800 C   0  0  0  0  0  0  0  0  0  0  0  0
  145.6290  125.8530  112.1220 C   0  0  0  0  0  0  0  0  0  0  0  0
  145.7550  124.5390  112.5400 C   0  0  0  0  0  0  0  0  0  0  0  0
  146.5060  124.2100  113.7420 N   0  0  0  0  0  0  0  0  0  0  0  0
  147.9260  124.4940  113.8340 C   0  0  0  0  0  0  0  0  0  0  0  0
  148.5450  124.7620  112.8590 O   0  0  0  0  0  0  0  0  0  0  0  0
  148.5600  124.4550  115.0810 O   0  0  0  0  0  0  0  0  0  0  0  0
  149.8050  123.8150  115.0770 C   0  0  0  0  0  0  0  0  0  0  0  0
  146.2830  126.9870  112.9110 C   0  0  0  0  0  0  0  0  0  0  0  0
  143.5310  125.4460  109.0320 N   0  0  0  0  0  0  0  0  0  0  0  0
  142.6230  124.4460  108.4880 C   0  0  0  0  0  0  0  0  0  0  0  0
  143.3830  123.5760  107.4870 C   0  0  0  0  0  0  0  0  0  0  0  0
  143.9810  122.9100  106.7050 C   0  0  0  0  0  0  0  0  0  0  0  0
  143.7040  126.7120  108.3230 C   0  0  0  0  0  0  0  0  0  0  0  0
  142.3800  127.3820  107.9460 C   0  0  0  0  0  0  0  0  0  0  0  0
  141.4500  127.6890  108.9220 C   0  0  0  0  0  0  0  0  0  0  0  0
  140.2580  128.3000  108.5690 C   0  0  0  0  0  0  0  0  0  0  0  0
  139.9990  128.6090  107.2450 C   0  0  0  0  0  0  0  0  0  0  0  0
  140.9320  128.3070  106.2700 C   0  0  0  0  0  0  0  0  0  0  0  0
  142.1220  127.6940  106.6210 C   0  0  0  0  0  0  0  0  0  0  0  0
  138.8250  129.2130  106.9020 F   0  0  0  0  0  0  0  0  0  0  0  0
  144.8000  121.9580  113.0650 H   0  0  0  0  0  0  0  0  0  0  0  0
  146.1850  121.8780  112.4140 H   0  0  0  0  0  0  0  0  0  0  0  0
  144.9360  121.5100  111.6050 H   0  0  0  0  0  0  0  0  0  0  0  0
  144.0250  123.1470  110.1850 H   0  0  0  0  0  0  0  0  0  0  0  0
  144.8270  127.0340  110.7070 H   0  0  0  0  0  0  0  0  0  0  0  0
  146.0990  123.8380  114.4120 H   0  0  0  0  0  0  0  0  0  0  0  0
  150.0090  123.5230  115.9450 H   0  0  0  0  0  0  0  0  0  0  0  0
  150.4640  124.4170  114.7880 H   0  0  0  0  0  0  0  0  0  0  0  0
  149.7770  123.0770  114.4960 H   0  0  0  0  0  0  0  0  0  0  0  0
  146.0170  126.9370  113.8100 H   0  0  0  0  0  0  0  0  0  0  0  0
  146.0140  127.8110  112.5520 H   0  0  0  0  0  0  0  0  0  0  0  0
  147.2170  126.9130  112.8540 H   0  0  0  0  0  0  0  0  0  0  0  0
  142.2830  123.9070  109.1770 H   0  0  0  0  0  0  0  0  0  0  0  0
  141.9050  124.8590  108.0480 H   0  0  0  0  0  0  0  0  0  0  0  0
  144.4380  122.3970  106.1030 H   0  0  0  0  0  0  0  0  0  0  0  0
  144.1980  127.3170  108.8380 H   0  0  0  0  0  0  0  0  0  0  0  0
  144.1800  126.5390  107.5350 H   0  0  0  0  0  0  0  0  0  0  0  0
  141.6220  127.4830  109.8110 H   0  0  0  0  0  0  0  0  0  0  0  0
  139.6320  128.5050  109.2220 H   0  0  0  0  0  0  0  0  0  0  0  0
  140.7590  128.5130  105.3810 H   0  0  0  0  0  0  0  0  0  0  0  0
  142.7470  127.4910  105.9660 H   0  0  0  0  0  0  0  0  0  0  0  0
  1  2  1  0  0  0  0
  2  3  1  0  0  0  0
  3  4  2  0  0  0  0
  4  5  1  0  0  0  0
  5  6  2  0  0  0  0
  2  7  2  0  0  0  0
  6  7  1  0  0  0  0
  7  8  1  0  0  0  0
  8  9  1  0  0  0  0
  9 10  2  0  0  0  0
  9 11  1  0  0  0  0
 11 12  1  0  0  0  0
  6 13  1  0  0  0  0
  4 14  1  0  0  0  0
 14 15  1  0  0  0  0
 15 16  1  0  0  0  0
 16 17  3  0  0  0  0
 14 18  1  0  0  0  0
 18 19  1  0  0  0  0
 19 20  2  0  0  0  0
 20 21  1  0  0  0  0
 21 22  2  0  0  0  0
 22 23  1  0  0  0  0
 19 24  1  0  0  0  0
 23 24  2  0  0  0  0
 22 25  1  0  0  0  0
  1 26  1  0  0  0  0
  1 27  1  0  0  0  0
  1 28  1  0  0  0  0
  3 29  1  0  0  0  0
  5 30  1  0  0  0  0
  8 31  1  0  0  0  0
 12 32  1  0  0  0  0
 12 33  1  0  0  0  0
 12 34  1  0  0  0  0
 13 35  1  0  0  0  0
 13 36  1  0  0  0  0
 13 37  1  0  0  0  0
 15 38  1  0  0  0  0
 15 39  1  0  0  0  0
 17 40  1  0  0  0  0
 18 41  1  0  0  0  0
 18 42  1  0  0  0  0
 20 43  1  0  0  0  0
 21 44  1  0  0  0  0
 23 45  1  0  0  0  0
 24 46  1  0  0  0  0
M  END
$$$$
