8IZY
  PyMOL3.1          3D                             0

 46 47  0  0  0  0  0  0  0  0999 V2000
  131.7740  126.2100  105.4120 C   0  0  0  0  0  0  0  0  0  0  0  0
  133.2470  126.6010  105.4540 C   0  0  0  0  0  0  0  0  0  0  0  0
  134.2090  125.6550  105.1570 C   0  0  0  0  0  0  0  0  0  0  0  0
  135.5510  125.9900  105.1860 C   0  0  0  0  0  0  0  0  0  0  0  0
  135.9260  127.2820  105.5190 C   0  0  0  0  0  0  0  0  0  0  0  0
  134.9630  128.2320  105.8170 C   0  0  0  0  0  0  0  0  0  0  0  0
  133.6240  127.8920  105.7820 C   0  0  0  0  0  0  0  0  0  0  0  0
  132.6130  128.8870  106.0950 N   0  0  0  0  0  0  0  0  0  0  0  0
  132.1160  128.9960  107.4530 C   0  0  0  0  0  0  0  0  0  0  0  0
  132.5010  128.2430  108.2800 O   0  0  0  0  0  0  0  0  0  0  0  0
  131.1870  129.9840  107.7890 O   0  0  0  0  0  0  0  0  0  0  0  0
  130.9510  130.0930  109.1630 C   0  0  0  0  0  0  0  0  0  0  0  0
  135.3870  129.6540  106.1800 C   0  0  0  0  0  0  0  0  0  0  0  0
  136.5550  124.9860  104.8830 N   0  0  0  0  0  0  0  0  0  0  0  0
  136.2310  123.8640  104.0250 C   0  0  0  0  0  0  0  0  0  0  0  0
  135.4950  122.8120  104.8530 C   0  0  0  0  0  0  0  0  0  0  0  0
  134.9110  122.0140  105.5130 C   0  0  0  0  0  0  0  0  0  0  0  0
  137.8720  125.0580  105.4930 C   0  0  0  0  0  0  0  0  0  0  0  0
  138.9330  125.6090  104.5430 C   0  0  0  0  0  0  0  0  0  0  0  0
  138.6300  126.6320  103.6630 C   0  0  0  0  0  0  0  0  0  0  0  0
  139.6080  127.1260  102.8150 C   0  0  0  0  0  0  0  0  0  0  0  0
  140.8870  126.5990  102.8520 C   0  0  0  0  0  0  0  0  0  0  0  0
  141.1910  125.5790  103.7350 C   0  0  0  0  0  0  0  0  0  0  0  0
  140.2140  125.0870  104.5820 C   0  0  0  0  0  0  0  0  0  0  0  0
  141.8520  127.0840  102.0170 F   0  0  0  0  0  0  0  0  0  0  0  0
  131.3010  126.8260  104.8840 H   0  0  0  0  0  0  0  0  0  0  0  0
  131.4270  126.2080  106.2830 H   0  0  0  0  0  0  0  0  0  0  0  0
  131.6900  125.3510  105.0400 H   0  0  0  0  0  0  0  0  0  0  0  0
  133.9510  124.7910  104.9380 H   0  0  0  0  0  0  0  0  0  0  0  0
  136.8250  127.5090  105.5430 H   0  0  0  0  0  0  0  0  0  0  0  0
  132.3090  129.4110  105.4740 H   0  0  0  0  0  0  0  0  0  0  0  0
  130.2810  130.7310  109.3160 H   0  0  0  0  0  0  0  0  0  0  0  0
  131.7410  130.3580  109.5960 H   0  0  0  0  0  0  0  0  0  0  0  0
  130.6720  129.2620  109.5010 H   0  0  0  0  0  0  0  0  0  0  0  0
  135.2130  130.2260  105.4560 H   0  0  0  0  0  0  0  0  0  0  0  0
  136.3040  129.6670  106.3770 H   0  0  0  0  0  0  0  0  0  0  0  0
  134.9020  129.9430  106.9300 H   0  0  0  0  0  0  0  0  0  0  0  0
  135.6820  124.1520  103.3200 H   0  0  0  0  0  0  0  0  0  0  0  0
  137.0210  123.4950  103.6790 H   0  0  0  0  0  0  0  0  0  0  0  0
  134.4640  121.4010  106.0210 H   0  0  0  0  0  0  0  0  0  0  0  0
  137.8350  125.6020  106.2560 H   0  0  0  0  0  0  0  0  0  0  0  0
  138.1270  124.1920  105.7550 H   0  0  0  0  0  0  0  0  0  0  0  0
  137.7720  126.9850  103.6380 H   0  0  0  0  0  0  0  0  0  0  0  0
  139.4040  127.8100  102.2210 H   0  0  0  0  0  0  0  0  0  0  0  0
  142.0500  125.2260  103.7590 H   0  0  0  0  0  0  0  0  0  0  0  0
  140.4190  124.4020  105.1760 H   0  0  0  0  0  0  0  0  0  0  0  0
  1  2  1  0  0  0  0
  2  3  1  0  0  0  0
  3  4  2  0  0  0  0
  4  5  1  0  0  0  0
  5  6  2  0  0  0  0
  2  7  2  0  0  0  0
  6  7  1  0  0  0  0
  7  8  1  0  0  0  0
  8  9  1  0  0  0  0
  9 10  2  0  0  0  0
  9 11  1  0  0  0  0
 11 12  1  0  0  0  0
  6 13  1  0  0  0  0
  4 14  1  0  0  0  0
 14 15  1  0  0  0  0
 15 16  1  0  0  0  0
 16 17  3  0  0  0  0
 14 18  1  0  0  0  0
 18 19  1  0  0  0  0
 19 20  2  0  0  0  0
 20 21  1  0  0  0  0
 21 22  2  0  0  0  0
 22 23  1  0  0  0  0
 19 24  1  0  0  0  0
 23 24  2  0  0  0  0
 22 25  1  0  0  0  0
  1 26  1  0  0  0  0
  1 27  1  0  0  0  0
  1 28  1  0  0  0  0
  3 29  1  0  0  0  0
  5 30  1  0  0  0  0
  8 31  1  0  0  0  0
 12 32  1  0  0  0  0
 12 33  1  0  0  0  0
 12 34  1  0  0  0  0
 13 35  1  0  0  0  0
 13 36  1  0  0  0  0
 13 37  1  0  0  0  0
 15 38  1  0  0  0  0
 15 39  1  0  0  0  0
 17 40  1  0  0  0  0
 18 41  1  0  0  0  0
 18 42  1  0  0  0  0
 20 43  1  0  0  0  0
 21 44  1  0  0  0  0
 23 45  1  0  0  0  0
 24 46  1  0  0  0  0
M  END
$$$$
