8IZY
  PyMOL3.1          3D                             0

 46 47  0  0  0  0  0  0  0  0999 V2000
  121.2820  145.2810  112.2700 C   0  0  0  0  0  0  0  0  0  0  0  0
  119.8310  145.1490  111.8120 C   0  0  0  0  0  0  0  0  0  0  0  0
  119.5310  144.4270  110.6690 C   0  0  0  0  0  0  0  0  0  0  0  0
  118.2170  144.2940  110.2430 C   0  0  0  0  0  0  0  0  0  0  0  0
  117.2100  144.9030  110.9800 C   0  0  0  0  0  0  0  0  0  0  0  0
  117.5080  145.6300  112.1220 C   0  0  0  0  0  0  0  0  0  0  0  0
  118.8210  145.7550  112.5410 C   0  0  0  0  0  0  0  0  0  0  0  0
  119.1510  146.5070  113.7420 N   0  0  0  0  0  0  0  0  0  0  0  0
  118.8660  147.9270  113.8340 C   0  0  0  0  0  0  0  0  0  0  0  0
  118.5990  148.5450  112.8590 O   0  0  0  0  0  0  0  0  0  0  0  0
  118.9070  148.5610  115.0810 O   0  0  0  0  0  0  0  0  0  0  0  0
  119.5460  149.8060  115.0760 C   0  0  0  0  0  0  0  0  0  0  0  0
  116.3740  146.2840  112.9100 C   0  0  0  0  0  0  0  0  0  0  0  0
  117.9170  143.5310  109.0320 N   0  0  0  0  0  0  0  0  0  0  0  0
  118.9170  142.6240  108.4870 C   0  0  0  0  0  0  0  0  0  0  0  0
  119.7840  143.3860  107.4850 C   0  0  0  0  0  0  0  0  0  0  0  0
  120.4500  143.9830  106.7020 C   0  0  0  0  0  0  0  0  0  0  0  0
  116.6500  143.7020  108.3240 C   0  0  0  0  0  0  0  0  0  0  0  0
  115.9810  142.3780  107.9470 C   0  0  0  0  0  0  0  0  0  0  0  0
  115.6690  141.4490  108.9240 C   0  0  0  0  0  0  0  0  0  0  0  0
  115.0580  140.2580  108.5710 C   0  0  0  0  0  0  0  0  0  0  0  0
  114.7550  139.9960  107.2470 C   0  0  0  0  0  0  0  0  0  0  0  0
  115.0620  140.9260  106.2710 C   0  0  0  0  0  0  0  0  0  0  0  0
  115.6730  142.1170  106.6220 C   0  0  0  0  0  0  0  0  0  0  0  0
  114.1510  138.8210  106.9050 F   0  0  0  0  0  0  0  0  0  0  0  0
  121.4020  144.8000  113.0670 H   0  0  0  0  0  0  0  0  0  0  0  0
  121.4830  146.1850  112.4160 H   0  0  0  0  0  0  0  0  0  0  0  0
  121.8510  144.9370  111.6070 H   0  0  0  0  0  0  0  0  0  0  0  0
  120.2160  144.0250  110.1870 H   0  0  0  0  0  0  0  0  0  0  0  0
  116.3270  144.8270  110.7060 H   0  0  0  0  0  0  0  0  0  0  0  0
  119.5210  146.1000  114.4130 H   0  0  0  0  0  0  0  0  0  0  0  0
  119.8390  150.0110  115.9440 H   0  0  0  0  0  0  0  0  0  0  0  0
  118.9430  150.4650  114.7870 H   0  0  0  0  0  0  0  0  0  0  0  0
  120.2830  149.7790  114.4940 H   0  0  0  0  0  0  0  0  0  0  0  0
  116.4230  146.0180  113.8090 H   0  0  0  0  0  0  0  0  0  0  0  0
  115.5490  146.0160  112.5500 H   0  0  0  0  0  0  0  0  0  0  0  0
  116.4480  147.2190  112.8530 H   0  0  0  0  0  0  0  0  0  0  0  0
  119.4570  142.2850  109.1760 H   0  0  0  0  0  0  0  0  0  0  0  0
  118.5060  141.9060  108.0480 H   0  0  0  0  0  0  0  0  0  0  0  0
  120.9610  144.4400  106.1000 H   0  0  0  0  0  0  0  0  0  0  0  0
  116.0440  144.1970  108.8390 H   0  0  0  0  0  0  0  0  0  0  0  0
  116.8220  144.1780  107.5350 H   0  0  0  0  0  0  0  0  0  0  0  0
  115.8720  141.6240  109.8140 H   0  0  0  0  0  0  0  0  0  0  0  0
  114.8500  139.6330  109.2250 H   0  0  0  0  0  0  0  0  0  0  0  0
  114.8590  140.7520  105.3810 H   0  0  0  0  0  0  0  0  0  0  0  0
  115.8800  142.7400  105.9660 H   0  0  0  0  0  0  0  0  0  0  0  0
  1  2  1  0  0  0  0
  2  3  1  0  0  0  0
  3  4  2  0  0  0  0
  4  5  1  0  0  0  0
  5  6  2  0  0  0  0
  2  7  2  0  0  0  0
  6  7  1  0  0  0  0
  7  8  1  0  0  0  0
  8  9  1  0  0  0  0
  9 10  2  0  0  0  0
  9 11  1  0  0  0  0
 11 12  1  0  0  0  0
  6 13  1  0  0  0  0
  4 14  1  0  0  0  0
 14 15  1  0  0  0  0
 15 16  1  0  0  0  0
 16 17  3  0  0  0  0
 14 18  1  0  0  0  0
 18 19  1  0  0  0  0
 19 20  2  0  0  0  0
 20 21  1  0  0  0  0
 21 22  2  0  0  0  0
 22 23  1  0  0  0  0
 19 24  1  0  0  0  0
 23 24  2  0  0  0  0
 22 25  1  0  0  0  0
  1 26  1  0  0  0  0
  1 27  1  0  0  0  0
  1 28  1  0  0  0  0
  3 29  1  0  0  0  0
  5 30  1  0  0  0  0
  8 31  1  0  0  0  0
 12 32  1  0  0  0  0
 12 33  1  0  0  0  0
 12 34  1  0  0  0  0
 13 35  1  0  0  0  0
 13 36  1  0  0  0  0
 13 37  1  0  0  0  0
 15 38  1  0  0  0  0
 15 39  1  0  0  0  0
 17 40  1  0  0  0  0
 18 41  1  0  0  0  0
 18 42  1  0  0  0  0
 20 43  1  0  0  0  0
 21 44  1  0  0  0  0
 23 45  1  0  0  0  0
 24 46  1  0  0  0  0
M  END
$$$$
