7EZF
  PyMOL3.1          3D                             0

 80 84  0  0  0  0  0  0  0  0999 V2000
   16.6660    6.9590   -2.4150 Cl  0  0  0  0  0  0  0  0  0  0  0  0
   15.8500    8.5400   -6.0380 C   0  0  0  0  0  0  0  0  0  0  0  0
   19.2950    7.7040   -4.0230 N   0  0  0  0  0  0  0  0  0  0  0  0
   22.6520   11.2790   -5.5260 O   0  0  0  0  0  0  0  0  0  0  0  0
   15.6960    7.9700   -4.7840 C   0  0  0  0  0  0  0  0  0  0  0  0
   23.3210   10.3310   -7.3880 O   0  0  0  0  0  0  0  0  0  0  0  0
   16.8160    7.6630   -4.0460 C   0  0  0  0  0  0  0  0  0  0  0  0
   22.6660    7.5750   -5.2770 O   0  0  0  0  0  0  0  0  0  0  0  0
   18.0930    7.9090   -4.5520 C   0  0  0  0  0  0  0  0  0  0  0  0
   22.1230    8.1120   -3.2570 O   0  0  0  0  0  0  0  0  0  0  0  0
   18.2710    8.4700   -5.7940 C   0  0  0  0  0  0  0  0  0  0  0  0
   17.1290    8.7930   -6.5450 C   0  0  0  0  0  0  0  0  0  0  0  0
   20.2700    8.0860   -4.8340 C   0  0  0  0  0  0  0  0  0  0  0  0
   19.6700    8.5940   -5.9950 C   0  0  0  0  0  0  0  0  0  0  0  0
   14.6070    8.8890   -6.8640 C   0  0  0  0  0  0  0  0  0  0  0  0
   14.0760   10.3080   -6.6480 C   0  0  0  0  0  0  0  0  0  0  0  0
   20.3560    9.1510   -7.2420 C   0  0  0  0  0  0  0  0  0  0  0  0
   20.8710   10.5850   -7.0790 C   0  0  0  0  0  0  0  0  0  0  0  0
   22.3620   10.7310   -6.6430 C   0  0  0  0  0  0  0  0  0  0  0  0
   21.7630    7.9340   -4.4600 C   0  0  0  0  0  0  0  0  0  0  0  0
   -4.1340    6.5970   46.5350 Cl  0  0  0  0  0  0  0  0  0  0  0  0
   -6.9280    8.8530   48.4750 C   0  0  0  0  0  0  0  0  0  0  0  0
   -5.8520    4.8970   48.6380 N   0  0  0  0  0  0  0  0  0  0  0  0
  -11.5520    4.4330   51.0200 O   0  0  0  0  0  0  0  0  0  0  0  0
   -5.8720    8.4420   47.6420 C   0  0  0  0  0  0  0  0  0  0  0  0
  -11.6540    5.8450   49.3480 O   0  0  0  0  0  0  0  0  0  0  0  0
   -5.4530    7.1240   47.6310 C   0  0  0  0  0  0  0  0  0  0  0  0
   -5.5210    2.3430   49.8500 O   0  0  0  0  0  0  0  0  0  0  0  0
   -6.0880    6.1990   48.4750 C   0  0  0  0  0  0  0  0  0  0  0  0
   -7.7110    2.2620   50.0780 O   0  0  0  0  0  0  0  0  0  0  0  0
   -7.1260    6.5820   49.3120 C   0  0  0  0  0  0  0  0  0  0  0  0
   -7.5480    7.9220   49.3090 C   0  0  0  0  0  0  0  0  0  0  0  0
   -6.6790    4.3950   49.5140 C   0  0  0  0  0  0  0  0  0  0  0  0
   -7.5320    5.4030   49.9870 C   0  0  0  0  0  0  0  0  0  0  0  0
   -7.3900   10.3260   48.4930 C   0  0  0  0  0  0  0  0  0  0  0  0
   -6.3010   11.3880   48.2300 C   0  0  0  0  0  0  0  0  0  0  0  0
   -8.6380    5.2130   51.0440 C   0  0  0  0  0  0  0  0  0  0  0  0
   -9.8750    6.1170   50.9600 C   0  0  0  0  0  0  0  0  0  0  0  0
  -11.1000    5.4230   50.4020 C   0  0  0  0  0  0  0  0  0  0  0  0
   -6.6460    2.9180   49.8590 C   0  0  0  0  0  0  0  0  0  0  0  0
   29.5630   -3.4140    2.9160 Cl  0  0  0  0  0  0  0  0  0  0  0  0
   32.9680   -4.3270    0.9300 C   0  0  0  0  0  0  0  0  0  0  0  0
   29.0610   -3.7320   -0.1850 N   0  0  0  0  0  0  0  0  0  0  0  0
   32.2690   -7.4100   -4.6550 O   0  0  0  0  0  0  0  0  0  0  0  0
   32.0680   -4.0130    1.9490 C   0  0  0  0  0  0  0  0  0  0  0  0
   31.0030   -5.9920   -5.7540 O   0  0  0  0  0  0  0  0  0  0  0  0
   30.7360   -3.8050    1.6420 C   0  0  0  0  0  0  0  0  0  0  0  0
   27.8280   -3.9010   -3.5690 O   0  0  0  0  0  0  0  0  0  0  0  0
   30.2730   -3.9030    0.3360 C   0  0  0  0  0  0  0  0  0  0  0  0
   26.6900   -3.6390   -1.7930 O   0  0  0  0  0  0  0  0  0  0  0  0
   31.1350   -4.2190   -0.6660 C   0  0  0  0  0  0  0  0  0  0  0  0
   32.4950   -4.4300   -0.3740 C   0  0  0  0  0  0  0  0  0  0  0  0
   29.0600   -3.9260   -1.4810 C   0  0  0  0  0  0  0  0  0  0  0  0
   30.3680   -4.2190   -1.8470 C   0  0  0  0  0  0  0  0  0  0  0  0
   34.4500   -4.5510    1.2200 C   0  0  0  0  0  0  0  0  0  0  0  0
   34.7840   -4.5520    2.7190 C   0  0  0  0  0  0  0  0  0  0  0  0
   30.9310   -4.5560   -3.2160 C   0  0  0  0  0  0  0  0  0  0  0  0
   30.8370   -6.0730   -3.3760 C   0  0  0  0  0  0  0  0  0  0  0  0
   31.4050   -6.5200   -4.6850 C   0  0  0  0  0  0  0  0  0  0  0  0
   27.8000   -3.8160   -2.3280 C   0  0  0  0  0  0  0  0  0  0  0  0
    6.2310   -7.7770   50.3380 Cl  0  0  0  0  0  0  0  0  0  0  0  0
    5.8510  -10.2900   53.5000 C   0  0  0  0  0  0  0  0  0  0  0  0
    5.6300   -6.2590   53.0270 N   0  0  0  0  0  0  0  0  0  0  0  0
    7.1870   -6.4600   59.5820 O   0  0  0  0  0  0  0  0  0  0  0  0
    6.0290   -9.8010   52.2090 C   0  0  0  0  0  0  0  0  0  0  0  0
    6.4250   -8.4240   58.9160 O   0  0  0  0  0  0  0  0  0  0  0  0
    5.9740   -8.4480   51.9740 C   0  0  0  0  0  0  0  0  0  0  0  0
    5.5170   -3.5080   53.6690 O   0  0  0  0  0  0  0  0  0  0  0  0
    5.7250   -7.5790   53.0160 C   0  0  0  0  0  0  0  0  0  0  0  0
    5.0030   -4.0190   55.7730 O   0  0  0  0  0  0  0  0  0  0  0  0
    5.5630   -8.0490   54.2980 C   0  0  0  0  0  0  0  0  0  0  0  0
    5.6240   -9.4180   54.5470 C   0  0  0  0  0  0  0  0  0  0  0  0
    5.4230   -5.8320   54.2560 C   0  0  0  0  0  0  0  0  0  0  0  0
    5.3540   -6.9300   55.1170 C   0  0  0  0  0  0  0  0  0  0  0  0
    5.8850  -11.7890   53.8010 C   0  0  0  0  0  0  0  0  0  0  0  0
    5.9420  -12.6700   52.5510 C   0  0  0  0  0  0  0  0  0  0  0  0
    5.1090   -6.9790   56.6190 C   0  0  0  0  0  0  0  0  0  0  0  0
    6.3350   -6.4890   57.3790 C   0  0  0  0  0  0  0  0  0  0  0  0
    6.6420   -7.1840   58.7060 C   0  0  0  0  0  0  0  0  0  0  0  0
    5.2920   -4.3590   54.5880 C   0  0  0  0  0  0  0  0  0  0  0  0
  2  5  1  0  0  0  0
  1  7  1  0  0  0  0
  5  7  2  0  0  0  0
  3  9  1  0  0  0  0
  7  9  1  0  0  0  0
  9 11  2  0  0  0  0
  2 12  2  0  0  0  0
 11 12  1  0  0  0  0
  3 13  1  0  0  0  0
 11 14  1  0  0  0  0
 13 14  2  0  0  0  0
  2 15  1  0  0  0  0
 15 16  1  0  0  0  0
 14 17  1  0  0  0  0
 17 18  1  0  0  0  0
  4 19  1  0  0  0  0
  6 19  2  0  0  0  0
 18 19  1  0  0  0  0
  8 20  2  0  0  0  0
 10 20  1  0  0  0  0
 13 20  1  0  0  0  0
 22 25  1  0  0  0  0
 21 27  1  0  0  0  0
 25 27  2  0  0  0  0
 23 29  1  0  0  0  0
 27 29  1  0  0  0  0
 29 31  2  0  0  0  0
 22 32  2  0  0  0  0
 31 32  1  0  0  0  0
 23 33  1  0  0  0  0
 31 34  1  0  0  0  0
 33 34  2  0  0  0  0
 22 35  1  0  0  0  0
 35 36  1  0  0  0  0
 34 37  1  0  0  0  0
 37 38  1  0  0  0  0
 24 39  1  0  0  0  0
 26 39  2  0  0  0  0
 38 39  1  0  0  0  0
 28 40  2  0  0  0  0
 30 40  1  0  0  0  0
 33 40  1  0  0  0  0
 42 45  1  0  0  0  0
 41 47  1  0  0  0  0
 45 47  2  0  0  0  0
 43 49  1  0  0  0  0
 47 49  1  0  0  0  0
 49 51  2  0  0  0  0
 42 52  2  0  0  0  0
 51 52  1  0  0  0  0
 43 53  1  0  0  0  0
 51 54  1  0  0  0  0
 53 54  2  0  0  0  0
 42 55  1  0  0  0  0
 55 56  1  0  0  0  0
 54 57  1  0  0  0  0
 57 58  1  0  0  0  0
 44 59  1  0  0  0  0
 46 59  2  0  0  0  0
 58 59  1  0  0  0  0
 48 60  2  0  0  0  0
 50 60  1  0  0  0  0
 53 60  1  0  0  0  0
 62 65  1  0  0  0  0
 61 67  1  0  0  0  0
 65 67  2  0  0  0  0
 63 69  1  0  0  0  0
 67 69  1  0  0  0  0
 69 71  2  0  0  0  0
 62 72  2  0  0  0  0
 71 72  1  0  0  0  0
 63 73  1  0  0  0  0
 71 74  1  0  0  0  0
 73 74  2  0  0  0  0
 62 75  1  0  0  0  0
 75 76  1  0  0  0  0
 74 77  1  0  0  0  0
 77 78  1  0  0  0  0
 64 79  1  0  0  0  0
 66 79  2  0  0  0  0
 78 79  1  0  0  0  0
 68 80  2  0  0  0  0
 70 80  1  0  0  0  0
 73 80  1  0  0  0  0
M  END
$$$$
