8R42
  PyMOL3.1          3D                             0

 25 28  0  0  0  0  0  0  0  0999 V2000
  -34.0730  -31.7040   34.4310 Cl  0  0  0  0  0  0  0  0  0  0  0  0
  -33.2590  -30.4030   35.2570 C   0  0  0  0  0  0  0  0  0  0  0  0
  -33.0970  -30.4650   36.7600 C   0  0  0  0  0  0  0  0  0  0  0  0
  -32.4710  -29.4470   37.4090 C   0  0  0  0  0  0  0  0  0  0  0  0
  -31.9440  -28.2610   36.6340 C   0  0  0  0  0  0  0  0  0  0  0  0
  -32.0790  -28.2010   35.2860 C   0  0  0  0  0  0  0  0  0  0  0  0
  -32.7860  -29.3450   34.5620 C   0  0  0  0  0  0  0  0  0  0  0  0
  -31.2310  -27.1500   37.4280 C   0  0  0  0  0  0  0  0  0  0  0  0
  -31.7100  -25.6910   37.0620 C   0  0  0  0  0  0  0  0  0  0  0  0
  -33.1210  -25.5230   37.4890 C   0  0  0  0  0  0  0  0  0  0  0  0
  -32.9990  -25.0100   38.8200 C   0  0  0  0  0  0  0  0  0  0  0  0
  -31.6270  -24.2980   38.7880 C   0  0  0  0  0  0  0  0  0  0  0  0
  -30.9220  -24.8760   37.7960 N   0  0  0  0  0  0  0  0  0  0  0  0
  -30.2250  -24.0150   37.0760 C   0  0  0  0  0  0  0  0  0  0  0  0
  -29.3830  -24.7230   35.9660 C   0  0  0  0  0  0  0  0  0  0  0  0
  -28.1940  -23.8320   35.6060 C   0  0  0  0  0  0  0  0  0  0  0  0
  -27.3700  -23.1770   36.5740 N   0  0  0  0  0  0  0  0  0  0  0  0
  -27.7880  -23.0860   37.9280 C   0  0  0  0  0  0  0  0  0  0  0  0
  -29.3200  -23.1560   38.0190 C   0  0  0  0  0  0  0  0  0  0  0  0
  -26.0190  -22.8510   36.2460 C   0  0  0  0  0  0  0  0  0  0  0  0
  -25.5660  -22.5520   34.8980 C   0  0  0  0  0  0  0  0  0  0  0  0
  -24.3280  -22.2520   34.6140 C   0  0  0  0  0  0  0  0  0  0  0  0
  -23.4500  -22.2040   35.4600 C   0  0  0  0  0  0  0  0  0  0  0  0
  -23.6450  -22.4310   36.7270 C   0  0  0  0  0  0  0  0  0  0  0  0
  -24.9010  -22.7710   37.2640 N   0  0  0  0  0  0  0  0  0  0  0  0
  1  2  1  0  0  0  0
  2  3  1  0  0  0  0
  3  4  2  0  0  0  0
  4  5  1  0  0  0  0
  5  6  2  0  0  0  0
  2  7  2  0  0  0  0
  6  7  1  0  0  0  0
  5  8  1  0  0  0  0
  8  9  1  0  0  0  0
  9 10  1  0  0  0  0
 10 11  1  0  0  0  0
 11 12  1  0  0  0  0
  9 13  1  0  0  0  0
 12 13  1  0  0  0  0
 13 14  1  0  0  0  0
 14 15  1  0  0  0  0
 15 16  1  0  0  0  0
 16 17  1  0  0  0  0
 17 18  1  0  0  0  0
 14 19  1  0  0  0  0
 18 19  1  0  0  0  0
 17 20  1  0  0  0  0
 20 21  1  0  0  0  0
 21 22  2  0  0  0  0
 22 23  1  0  0  0  0
 23 24  2  0  0  0  0
 20 25  2  0  0  0  0
 24 25  1  0  0  0  0
M  END
$$$$
