7W4O
  PyMOL3.1          3D                             0

 17 19  0  0  0  0  0  0  0  0999 V2000
   53.3270   72.0340  144.9820 Cl  0  0  0  0  0  0  0  0  0  0  0  0
   57.4430   73.9450  141.2070 S   0  0  0  0  0  0  0  0  0  0  0  0
   55.3820   72.5240  142.8560 S   0  0  0  0  0  0  0  0  0  0  0  0
   58.5070   72.9750  141.4840 O   0  0  0  0  0  0  0  0  0  0  0  0
   56.7160   73.7920  139.9400 O   0  0  0  0  0  0  0  0  0  0  0  0
   58.4010   77.7540  142.0730 N   0  0  0  0  0  0  0  0  0  0  0  0
   56.7170   76.1790  143.2050 N   0  0  0  0  0  0  0  0  0  0  0  0
   58.1610   75.3800  141.1230 N   0  0  0  0  0  0  0  0  0  0  0  0
   59.4160   78.1220  141.0940 C   0  0  0  0  0  0  0  0  0  0  0  0
   60.4480   79.0690  141.7060 C   0  0  0  0  0  0  0  0  0  0  0  0
   60.8420   77.6260  141.3610 C   0  0  0  0  0  0  0  0  0  0  0  0
   59.0350   78.3530  139.6150 C   0  0  0  0  0  0  0  0  0  0  0  0
   57.7920   76.4300  142.0910 C   0  0  0  0  0  0  0  0  0  0  0  0
   55.9960   74.8080  143.3290 C   0  0  0  0  0  0  0  0  0  0  0  0
   56.2880   73.7260  142.4310 C   0  0  0  0  0  0  0  0  0  0  0  0
   54.8800   74.3450  144.3820 C   0  0  0  0  0  0  0  0  0  0  0  0
   54.5330   72.9820  144.0750 C   0  0  0  0  0  0  0  0  0  0  0  0
  2  4  2  0  0  0  0
  2  5  2  0  0  0  0
  2  8  1  0  0  0  0
  6  9  1  0  0  0  0
  9 11  1  0  0  0  0
  9 12  1  0  0  0  0
  9 10  1  0  0  0  0
 10 11  1  0  0  0  0
  6 13  1  0  0  0  0
  7 13  1  0  0  0  0
  8 13  1  0  0  0  0
  7 14  1  0  0  0  0
 14 16  4  0  0  0  0
  2 15  1  0  0  0  0
  3 15  4  0  0  0  0
 14 15  4  0  0  0  0
  1 17  1  0  0  0  0
  3 17  4  0  0  0  0
 16 17  4  0  0  0  0
M  END
$$$$
