7W4O
  PyMOL3.1          3D                             0

 17 19  0  0  0  0  0  0  0  0999 V2000
  166.2860   53.3270  144.9820 Cl  0  0  0  0  0  0  0  0  0  0  0  0
  164.3750   57.4430  141.2070 S   0  0  0  0  0  0  0  0  0  0  0  0
  165.7960   55.3820  142.8560 S   0  0  0  0  0  0  0  0  0  0  0  0
  165.3450   58.5070  141.4840 O   0  0  0  0  0  0  0  0  0  0  0  0
  164.5280   56.7160  139.9400 O   0  0  0  0  0  0  0  0  0  0  0  0
  160.5660   58.4010  142.0730 N   0  0  0  0  0  0  0  0  0  0  0  0
  162.1410   56.7170  143.2050 N   0  0  0  0  0  0  0  0  0  0  0  0
  162.9400   58.1610  141.1230 N   0  0  0  0  0  0  0  0  0  0  0  0
  160.1980   59.4160  141.0940 C   0  0  0  0  0  0  0  0  0  0  0  0
  159.2510   60.4480  141.7060 C   0  0  0  0  0  0  0  0  0  0  0  0
  160.6940   60.8420  141.3610 C   0  0  0  0  0  0  0  0  0  0  0  0
  159.9670   59.0350  139.6150 C   0  0  0  0  0  0  0  0  0  0  0  0
  161.8900   57.7920  142.0910 C   0  0  0  0  0  0  0  0  0  0  0  0
  163.5120   55.9960  143.3290 C   0  0  0  0  0  0  0  0  0  0  0  0
  164.5940   56.2880  142.4310 C   0  0  0  0  0  0  0  0  0  0  0  0
  163.9750   54.8800  144.3820 C   0  0  0  0  0  0  0  0  0  0  0  0
  165.3380   54.5330  144.0750 C   0  0  0  0  0  0  0  0  0  0  0  0
  2  4  2  0  0  0  0
  2  5  2  0  0  0  0
  2  8  1  0  0  0  0
  6  9  1  0  0  0  0
  9 10  1  0  0  0  0
  9 11  1  0  0  0  0
 10 11  1  0  0  0  0
  9 12  1  0  0  0  0
  6 13  1  0  0  0  0
  7 13  1  0  0  0  0
  8 13  2  0  0  0  0
  7 14  1  0  0  0  0
  2 15  1  0  0  0  0
  3 15  1  0  0  0  0
 14 15  2  0  0  0  0
 14 16  1  0  0  0  0
  1 17  1  0  0  0  0
  3 17  1  0  0  0  0
 16 17  2  0  0  0  0
M  END
$$$$
