7NI4
  PyMOL3.1          3D                             0

 66 74  0  0  0  0  0  0  0  0999 V2000
  192.3250  244.2380  238.0390 C   0  0  0  0  0  0  0  0  0  0  0  0
  192.7550  243.0460  237.3850 O   0  0  0  0  0  0  0  0  0  0  0  0
  194.4040  242.1520  234.3130 C   0  0  0  0  0  0  0  0  0  0  0  0
  194.8740  243.3680  233.8910 C   0  0  0  0  0  0  0  0  0  0  0  0
  194.6610  244.4830  234.5950 N   0  0  0  0  0  0  0  0  0  0  0  0
  193.9690  244.3780  235.7350 C   0  0  0  0  0  0  0  0  0  0  0  0
  193.4650  243.1880  236.2250 C   0  0  0  0  0  0  0  0  0  0  0  0
  193.6820  242.0200  235.4950 C   0  0  0  0  0  0  0  0  0  0  0  0
  195.0450  240.0760  237.2440 O   0  0  0  0  0  0  0  0  0  0  0  0
  193.4910  237.6570  237.8200 C   0  0  0  0  0  0  0  0  0  0  0  0
  193.1180  238.8050  236.9990 N   0  0  0  0  0  0  0  0  0  0  0  0
  193.9290  239.8960  236.7930 C   0  0  0  0  0  0  0  0  0  0  0  0
  193.2030  240.7530  235.9610 N   0  0  0  0  0  0  0  0  0  0  0  0
  186.5530  240.7700  232.2940 C   0  0  0  0  0  0  0  0  0  0  0  0
  187.5260  241.7410  232.6700 O   0  0  0  0  0  0  0  0  0  0  0  0
  191.0610  245.0130  234.3200 C   0  0  0  0  0  0  0  0  0  0  0  0
  188.8490  245.8010  230.0840 C   0  0  0  0  0  0  0  0  0  0  0  0
  189.0430  243.7550  231.5250 C   0  0  0  0  0  0  0  0  0  0  0  0
  189.2860  245.0440  231.2490 N   0  0  0  0  0  0  0  0  0  0  0  0
  190.0310  245.6590  232.2010 N   0  0  0  0  0  0  0  0  0  0  0  0
  190.2560  244.7130  233.0980 C   0  0  0  0  0  0  0  0  0  0  0  0
  189.6520  243.4810  232.7200 C   0  0  0  0  0  0  0  0  0  0  0  0
  190.7950  241.8500  234.1770 C   0  0  0  0  0  0  0  0  0  0  0  0
  189.6790  242.1880  233.4530 C   0  0  0  0  0  0  0  0  0  0  0  0
  188.5860  241.3110  233.4170 C   0  0  0  0  0  0  0  0  0  0  0  0
  188.6110  240.1240  234.0880 C   0  0  0  0  0  0  0  0  0  0  0  0
  189.7480  239.7510  234.8400 C   0  0  0  0  0  0  0  0  0  0  0  0
  190.8590  240.6300  234.8870 C   0  0  0  0  0  0  0  0  0  0  0  0
  191.9670  240.1790  235.6700 C   0  0  0  0  0  0  0  0  0  0  0  0
  191.9160  238.9680  236.3170 C   0  0  0  0  0  0  0  0  0  0  0  0
  190.7730  238.1920  236.1980 C   0  0  0  0  0  0  0  0  0  0  0  0
  189.7160  238.5400  235.4960 N   0  0  0  0  0  0  0  0  0  0  0  0
  194.6450  241.0510  233.5650 F   0  0  0  0  0  0  0  0  0  0  0  0
  186.5200  250.6910  152.8280 C   0  0  0  0  0  0  0  0  0  0  0  0
  186.2100  249.3840  153.3060 O   0  0  0  0  0  0  0  0  0  0  0  0
  184.6610  247.9150  156.2040 C   0  0  0  0  0  0  0  0  0  0  0  0
  184.0740  249.0090  156.7840 C   0  0  0  0  0  0  0  0  0  0  0  0
  184.1760  250.2260  156.2440 N   0  0  0  0  0  0  0  0  0  0  0  0
  184.8730  250.3490  155.1090 C   0  0  0  0  0  0  0  0  0  0  0  0
  185.4900  249.2940  154.4650 C   0  0  0  0  0  0  0  0  0  0  0  0
  185.3910  248.0190  155.0240 C   0  0  0  0  0  0  0  0  0  0  0  0
  184.2220  246.2140  153.0060 O   0  0  0  0  0  0  0  0  0  0  0  0
  186.0050  244.0610  152.1190 C   0  0  0  0  0  0  0  0  0  0  0  0
  186.2650  245.1150  153.0960 N   0  0  0  0  0  0  0  0  0  0  0  0
  185.3510  246.0830  153.4410 C   0  0  0  0  0  0  0  0  0  0  0  0
  185.9900  246.8820  154.3930 N   0  0  0  0  0  0  0  0  0  0  0  0
  192.6120  247.0370  158.1080 C   0  0  0  0  0  0  0  0  0  0  0  0
  191.5490  247.9510  157.8580 O   0  0  0  0  0  0  0  0  0  0  0  0
  187.7060  251.0610  156.6340 C   0  0  0  0  0  0  0  0  0  0  0  0
  189.8370  251.4630  160.9650 C   0  0  0  0  0  0  0  0  0  0  0  0
  189.8430  249.6290  159.2520 C   0  0  0  0  0  0  0  0  0  0  0  0
  189.4750  250.8370  159.7010 N   0  0  0  0  0  0  0  0  0  0  0  0
  188.6710  251.5030  158.8340 N   0  0  0  0  0  0  0  0  0  0  0  0
  188.5390  250.6740  157.8120 C   0  0  0  0  0  0  0  0  0  0  0  0
  189.2620  249.4650  158.0230 C   0  0  0  0  0  0  0  0  0  0  0  0
  188.2820  247.9500  156.3410 C   0  0  0  0  0  0  0  0  0  0  0  0
  189.3600  248.2910  157.1180 C   0  0  0  0  0  0  0  0  0  0  0  0
  190.5340  247.5270  157.0450 C   0  0  0  0  0  0  0  0  0  0  0  0
  190.6250  246.4490  156.2160 C   0  0  0  0  0  0  0  0  0  0  0  0
  189.5290  246.0760  155.4060 C   0  0  0  0  0  0  0  0  0  0  0  0
  188.3370  246.8400  155.4680 C   0  0  0  0  0  0  0  0  0  0  0  0
  187.2770  246.3970  154.6170 C   0  0  0  0  0  0  0  0  0  0  0  0
  187.4460  245.2980  153.8090 C   0  0  0  0  0  0  0  0  0  0  0  0
  188.6600  244.6280  153.8330 C   0  0  0  0  0  0  0  0  0  0  0  0
  189.6780  244.9770  154.5890 N   0  0  0  0  0  0  0  0  0  0  0  0
  184.5300  246.7020  156.7880 F   0  0  0  0  0  0  0  0  0  0  0  0
  1  2  1  0  0  0  0
  3  4  2  0  0  0  0
  4  5  1  0  0  0  0
  5  6  2  0  0  0  0
  2  7  1  0  0  0  0
  6  7  1  0  0  0  0
  3  8  1  0  0  0  0
  7  8  2  0  0  0  0
 10 11  1  0  0  0  0
  9 12  2  0  0  0  0
 11 12  1  0  0  0  0
  8 13  1  0  0  0  0
 12 13  1  0  0  0  0
 14 15  1  0  0  0  0
 17 19  1  0  0  0  0
 18 19  1  0  0  0  0
 19 20  1  0  0  0  0
 16 21  1  0  0  0  0
 20 21  2  0  0  0  0
 18 22  2  0  0  0  0
 21 22  1  0  0  0  0
 22 24  1  0  0  0  0
 23 24  1  0  0  0  0
 15 25  1  0  0  0  0
 24 25  2  0  0  0  0
 25 26  1  0  0  0  0
 26 27  2  0  0  0  0
 23 28  2  0  0  0  0
 27 28  1  0  0  0  0
 13 29  1  0  0  0  0
 28 29  1  0  0  0  0
 11 30  1  0  0  0  0
 29 30  2  0  0  0  0
 30 31  1  0  0  0  0
 27 32  1  0  0  0  0
 31 32  2  0  0  0  0
  3 33  1  0  0  0  0
 34 35  1  0  0  0  0
 36 37  2  0  0  0  0
 37 38  1  0  0  0  0
 38 39  2  0  0  0  0
 35 40  1  0  0  0  0
 39 40  1  0  0  0  0
 36 41  1  0  0  0  0
 40 41  2  0  0  0  0
 43 44  1  0  0  0  0
 42 45  2  0  0  0  0
 44 45  1  0  0  0  0
 41 46  1  0  0  0  0
 45 46  1  0  0  0  0
 47 48  1  0  0  0  0
 50 52  1  0  0  0  0
 51 52  1  0  0  0  0
 52 53  1  0  0  0  0
 49 54  1  0  0  0  0
 53 54  2  0  0  0  0
 51 55  2  0  0  0  0
 54 55  1  0  0  0  0
 55 57  1  0  0  0  0
 56 57  1  0  0  0  0
 48 58  1  0  0  0  0
 57 58  2  0  0  0  0
 58 59  1  0  0  0  0
 59 60  2  0  0  0  0
 56 61  2  0  0  0  0
 60 61  1  0  0  0  0
 46 62  1  0  0  0  0
 61 62  1  0  0  0  0
 44 63  1  0  0  0  0
 62 63  2  0  0  0  0
 63 64  1  0  0  0  0
 60 65  1  0  0  0  0
 64 65  2  0  0  0  0
 36 66  1  0  0  0  0
M  END
$$$$
