7LPP
  PyMOL3.1          3D                             0

 23 25  0  0  0  0  0  0  0  0999 V2000
   13.0020  -13.7630  123.5520 C   0  0  0  0  0  0  0  0  0  0  0  0
   12.0890  -14.6430  124.4090 C   0  0  0  0  0  0  0  0  0  0  0  0
   12.5560  -15.8490  124.9100 C   0  0  0  0  0  0  0  0  0  0  0  0
   11.7280  -16.6480  125.6830 C   0  0  0  0  0  0  0  0  0  0  0  0
   10.4310  -16.2400  125.9520 C   0  0  0  0  0  0  0  0  0  0  0  0
    9.9610  -15.0350  125.4520 C   0  0  0  0  0  0  0  0  0  0  0  0
    8.6500  -14.6180  125.7210 O   0  0  0  0  0  0  0  0  0  0  0  0
    8.1220  -15.0780  126.9310 C   0  0  0  0  0  0  0  0  0  0  0  0
   10.7920  -14.2370  124.6800 C   0  0  0  0  0  0  0  0  0  0  0  0
   12.5280  -12.4410  122.7400 S   0  0  0  0  0  0  0  0  0  0  0  0
   13.9150  -12.0150  122.0750 C   0  0  0  0  0  0  0  0  0  0  0  0
   14.9280  -12.9410  122.4620 C   0  0  0  0  0  0  0  0  0  0  0  0
   14.3640  -13.9810  123.3480 N   0  0  0  0  0  0  0  0  0  0  0  0
   14.1180  -10.7970  121.1650 C   0  0  0  0  0  0  0  0  0  0  0  0
   15.1810  -10.2910  121.3920 N   0  0  0  0  0  0  0  0  0  0  0  0
   15.1650   -9.5900  122.6490 C   0  0  0  0  0  0  0  0  0  0  0  0
   14.9300   -8.0930  122.5080 C   0  0  0  0  0  0  0  0  0  0  0  0
   15.9700   -7.4420  121.7070 C   0  0  0  0  0  0  0  0  0  0  0  0
   16.4900   -8.2630  120.6400 C   0  0  0  0  0  0  0  0  0  0  0  0
   15.6450   -9.4900  120.2630 C   0  0  0  0  0  0  0  0  0  0  0  0
   17.1270   -7.0180  122.6080 C   0  0  0  0  0  0  0  0  0  0  0  0
   17.8760   -6.0530  121.9180 O   0  0  0  0  0  0  0  0  0  0  0  0
   15.3750   -6.2110  121.1100 O   0  0  0  0  0  0  0  0  0  0  0  0
  1  2  1  0  0  0  0
  2  3  1  0  0  0  0
  3  4  2  0  0  0  0
  4  5  1  0  0  0  0
  5  6  2  0  0  0  0
  6  7  1  0  0  0  0
  7  8  1  0  0  0  0
  2  9  2  0  0  0  0
  6  9  1  0  0  0  0
  1 10  1  0  0  0  0
 10 11  1  0  0  0  0
 11 12  2  0  0  0  0
  1 13  2  0  0  0  0
 12 13  1  0  0  0  0
 11 14  1  0  0  0  0
 14 15  1  0  0  0  0
 15 16  1  0  0  0  0
 16 17  1  0  0  0  0
 17 18  1  0  0  0  0
 18 19  1  0  0  0  0
 15 20  1  0  0  0  0
 19 20  1  0  0  0  0
 18 21  1  0  0  0  0
 21 22  1  0  0  0  0
 18 23  1  0  0  0  0
M  END
$$$$
