7LPP
  PyMOL3.1          3D                             0

 23 25  0  0  0  0  0  0  0  0999 V2000
   74.3010   -2.5110  132.0660 C   0  0  0  0  0  0  0  0  0  0  0  0
   74.8960   -2.5600  130.6590 C   0  0  0  0  0  0  0  0  0  0  0  0
   74.1560   -2.1510  129.5600 C   0  0  0  0  0  0  0  0  0  0  0  0
   74.7150   -2.2050  128.2920 C   0  0  0  0  0  0  0  0  0  0  0  0
   76.0130   -2.6670  128.1250 C   0  0  0  0  0  0  0  0  0  0  0  0
   76.7540   -3.0760  129.2240 C   0  0  0  0  0  0  0  0  0  0  0  0
   78.0680   -3.5440  129.0710 O   0  0  0  0  0  0  0  0  0  0  0  0
   78.6740   -3.2110  127.8550 C   0  0  0  0  0  0  0  0  0  0  0  0
   76.1910   -3.0190  130.4900 C   0  0  0  0  0  0  0  0  0  0  0  0
   74.9880   -3.1900  133.3670 S   0  0  0  0  0  0  0  0  0  0  0  0
   73.9150   -2.7900  134.4770 C   0  0  0  0  0  0  0  0  0  0  0  0
   72.8570   -2.0500  133.8770 C   0  0  0  0  0  0  0  0  0  0  0  0
   73.1060   -1.8890  132.4280 N   0  0  0  0  0  0  0  0  0  0  0  0
   74.0100   -3.1640  135.9580 C   0  0  0  0  0  0  0  0  0  0  0  0
   74.0640   -2.1910  136.6600 N   0  0  0  0  0  0  0  0  0  0  0  0
   73.9110   -2.6230  138.0290 C   0  0  0  0  0  0  0  0  0  0  0  0
   74.0850   -1.4960  139.0410 C   0  0  0  0  0  0  0  0  0  0  0  0
   75.3320   -0.7860  138.7490 C   0  0  0  0  0  0  0  0  0  0  0  0
   75.5790   -0.3350  137.4070 C   0  0  0  0  0  0  0  0  0  0  0  0
   75.3160   -1.4760  136.4180 C   0  0  0  0  0  0  0  0  0  0  0  0
   74.5640    0.5120  139.0070 C   0  0  0  0  0  0  0  0  0  0  0  0
   74.4770    0.7190  140.3940 O   0  0  0  0  0  0  0  0  0  0  0  0
   76.2490   -0.3570  139.8540 O   0  0  0  0  0  0  0  0  0  0  0  0
  1  2  1  0  0  0  0
  2  3  1  0  0  0  0
  3  4  2  0  0  0  0
  4  5  1  0  0  0  0
  5  6  2  0  0  0  0
  6  7  1  0  0  0  0
  7  8  1  0  0  0  0
  2  9  2  0  0  0  0
  6  9  1  0  0  0  0
  1 10  1  0  0  0  0
 10 11  1  0  0  0  0
 11 12  2  0  0  0  0
  1 13  2  0  0  0  0
 12 13  1  0  0  0  0
 11 14  1  0  0  0  0
 14 15  1  0  0  0  0
 15 16  1  0  0  0  0
 16 17  1  0  0  0  0
 17 18  1  0  0  0  0
 18 19  1  0  0  0  0
 15 20  1  0  0  0  0
 19 20  1  0  0  0  0
 18 21  1  0  0  0  0
 21 22  1  0  0  0  0
 18 23  1  0  0  0  0
M  END
$$$$
