9J5V
  PyMOL3.1          3D                             0

 20 21  0  0  0  0  0  0  0  0999 V2000
  117.5760  109.4120  101.1170 C   0  0  0  0  0  0  0  0  0  0  0  0
  122.5920  109.7000  100.2120 N   0  0  0  0  0  0  0  0  0  0  0  0
  119.4100  109.9270   99.0790 O   0  0  0  0  0  0  0  0  0  0  0  0
  117.0850  109.5820   99.7010 C   0  0  0  0  0  0  0  0  0  0  0  0
  124.2720  112.0930   99.6750 O   0  0  0  0  0  0  0  0  0  0  0  0
  118.1700  109.4870   98.6940 C   0  0  0  0  0  0  0  0  0  0  0  0
  120.2510  109.7440   98.0000 C   0  0  0  0  0  0  0  0  0  0  0  0
  121.5990  110.0470   97.9400 C   0  0  0  0  0  0  0  0  0  0  0  0
  122.3760  110.6650   99.1080 C   0  0  0  0  0  0  0  0  0  0  0  0
  123.6300  111.3850   98.6260 C   0  0  0  0  0  0  0  0  0  0  0  0
  121.4040  109.4690  101.0440 C   0  0  0  0  0  0  0  0  0  0  0  0
  120.8900  110.7170  101.7160 C   0  0  0  0  0  0  0  0  0  0  0  0
  123.2030  108.4350   99.7870 C   0  0  0  0  0  0  0  0  0  0  0  0
  123.3330  107.4250  100.9000 C   0  0  0  0  0  0  0  0  0  0  0  0
  122.2220  109.7710   96.7340 C   0  0  0  0  0  0  0  0  0  0  0  0
  121.5340  109.2160   95.6520 C   0  0  0  0  0  0  0  0  0  0  0  0
  120.1930  108.9210   95.7390 C   0  0  0  0  0  0  0  0  0  0  0  0
  119.5360  109.1910   96.9440 C   0  0  0  0  0  0  0  0  0  0  0  0
  118.1870  109.0300   97.4140 C   0  0  0  0  0  0  0  0  0  0  0  0
  117.0640  108.4650   96.6030 C   0  0  0  0  0  0  0  0  0  0  0  0
  1  4  1  0  0  0  0
  3  6  1  0  0  0  0
  4  6  1  0  0  0  0
  3  7  1  0  0  0  0
  7  8  1  0  0  0  0
  2  9  1  0  0  0  0
  8  9  1  0  0  0  0
  5 10  1  0  0  0  0
  9 10  1  0  0  0  0
  2 11  1  0  0  0  0
 11 12  1  0  0  0  0
  2 13  1  0  0  0  0
 13 14  1  0  0  0  0
  8 15  2  0  0  0  0
 15 16  1  0  0  0  0
 16 17  2  0  0  0  0
  7 18  2  0  0  0  0
 17 18  1  0  0  0  0
  6 19  2  0  0  0  0
 18 19  1  0  0  0  0
 19 20  1  0  0  0  0
M  END
$$$$
