7JUP
  PyMOL3.1          3D                             0

 46 50  0  0  0  0  0  0  0  0999 V2000
   56.4940   61.9640   83.3820 C   0  0  0  0  0  0  0  0  0  0  0  0
   56.3880   62.5020   84.7340 N   0  0  0  0  0  0  0  0  0  0  0  0
   55.7270   63.6520   85.1190 C   0  0  0  0  0  0  0  0  0  0  0  0
   55.9220   63.9280   86.3980 N   0  0  0  0  0  0  0  0  0  0  0  0
   56.7740   62.9580   86.8250 C   0  0  0  0  0  0  0  0  0  0  0  0
   57.0500   62.0630   85.8540 C   0  0  0  0  0  0  0  0  0  0  0  0
   57.9180   60.9190   86.0180 C   0  0  0  0  0  0  0  0  0  0  0  0
   58.1100   60.0760   85.1560 O   0  0  0  0  0  0  0  0  0  0  0  0
   58.5150   60.8890   87.2430 N   0  0  0  0  0  0  0  0  0  0  0  0
   58.1620   61.7970   88.2250 C   0  0  0  0  0  0  0  0  0  0  0  0
   57.3270   62.8170   88.0670 N   0  0  0  0  0  0  0  0  0  0  0  0
   59.5610   59.8760   87.5450 C   0  0  0  0  0  0  0  0  0  0  0  0
   60.9130   60.4700   87.8410 C   0  0  0  0  0  0  0  0  0  0  0  0
   61.1290   61.7040   88.2070 N   0  0  0  0  0  0  0  0  0  0  0  0
   62.4780   61.7000   88.4070 C   0  0  0  0  0  0  0  0  0  0  0  0
   63.0750   60.5430   88.1850 N   0  0  0  0  0  0  0  0  0  0  0  0
   62.0210   59.6960   87.8190 O   0  0  0  0  0  0  0  0  0  0  0  0
   63.1530   62.9490   88.8790 C   0  0  0  0  0  0  0  0  0  0  0  0
   64.6510   63.1040   88.5520 C   0  0  0  0  0  0  0  0  0  0  0  0
   64.6990   64.3920   87.7310 C   0  0  0  0  0  0  0  0  0  0  0  0
   63.5800   65.1180   88.2160 O   0  0  0  0  0  0  0  0  0  0  0  0
   62.5160   64.1710   88.2290 C   0  0  0  0  0  0  0  0  0  0  0  0
   65.9680   65.2180   87.7840 C   0  0  0  0  0  0  0  0  0  0  0  0
   65.9140   66.5870   87.4840 C   0  0  0  0  0  0  0  0  0  0  0  0
   67.0860   67.2980   87.2220 C   0  0  0  0  0  0  0  0  0  0  0  0
   68.3150   66.6450   87.3010 C   0  0  0  0  0  0  0  0  0  0  0  0
   68.3840   65.3060   87.6730 C   0  0  0  0  0  0  0  0  0  0  0  0
   67.2130   64.5880   87.9130 C   0  0  0  0  0  0  0  0  0  0  0  0
   69.4500   67.3040   87.0240 F   0  0  0  0  0  0  0  0  0  0  0  0
   56.0360   60.9680   83.3410 H   0  0  0  0  0  0  0  0  0  0  0  0
   55.9870   62.6320   82.6740 H   0  0  0  0  0  0  0  0  0  0  0  0
   57.5520   61.8840   83.1050 H   0  0  0  0  0  0  0  0  0  0  0  0
   55.1400   64.2360   84.4230 H   0  0  0  0  0  0  0  0  0  0  0  0
   58.6520   61.6100   89.1710 H   0  0  0  0  0  0  0  0  0  0  0  0
   59.2550   59.2970   88.4250 H   0  0  0  0  0  0  0  0  0  0  0  0
   59.6690   59.1710   86.7120 H   0  0  0  0  0  0  0  0  0  0  0  0
   63.0120   63.0380   89.9640 H   0  0  0  0  0  0  0  0  0  0  0  0
   65.2320   63.2040   89.4770 H   0  0  0  0  0  0  0  0  0  0  0  0
   65.0510   62.2640   87.9710 H   0  0  0  0  0  0  0  0  0  0  0  0
   64.5170   64.1250   86.6820 H   0  0  0  0  0  0  0  0  0  0  0  0
   62.1950   63.9500   87.2040 H   0  0  0  0  0  0  0  0  0  0  0  0
   61.6540   64.5120   88.8160 H   0  0  0  0  0  0  0  0  0  0  0  0
   64.9560   67.0900   87.3860 H   0  0  0  0  0  0  0  0  0  0  0  0
   67.0360   68.3430   86.9300 H   0  0  0  0  0  0  0  0  0  0  0  0
   69.3510   64.8170   87.7410 H   0  0  0  0  0  0  0  0  0  0  0  0
   67.2790   63.5300   88.1480 H   0  0  0  0  0  0  0  0  0  0  0  0
  1  2  1  0  0  0  0
  2  3  1  0  0  0  0
  3  4  2  0  0  0  0
  4  5  1  0  0  0  0
  2  6  1  0  0  0  0
  5  6  2  0  0  0  0
  6  7  1  0  0  0  0
  7  8  2  0  0  0  0
  7  9  1  0  0  0  0
  9 10  1  0  0  0  0
  5 11  1  0  0  0  0
 10 11  2  0  0  0  0
  9 12  1  0  0  0  0
 12 13  1  0  0  0  0
 13 14  2  0  0  0  0
 14 15  1  0  0  0  0
 15 16  2  0  0  0  0
 13 17  1  0  0  0  0
 16 17  1  0  0  0  0
 15 18  1  0  0  0  0
 18 19  1  0  0  0  0
 19 20  1  0  0  0  0
 20 21  1  0  0  0  0
 18 22  1  0  0  0  0
 21 22  1  0  0  0  0
 20 23  1  0  0  0  0
 23 24  2  0  0  0  0
 24 25  1  0  0  0  0
 25 26  2  0  0  0  0
 26 27  1  0  0  0  0
 23 28  1  0  0  0  0
 27 28  2  0  0  0  0
 26 29  1  0  0  0  0
  1 30  1  0  0  0  0
  1 31  1  0  0  0  0
  1 32  1  0  0  0  0
  3 33  1  0  0  0  0
 10 34  1  0  0  0  0
 12 35  1  0  0  0  0
 12 36  1  0  0  0  0
 18 37  1  0  0  0  0
 19 38  1  0  0  0  0
 19 39  1  0  0  0  0
 20 40  1  0  0  0  0
 22 41  1  0  0  0  0
 22 42  1  0  0  0  0
 24 43  1  0  0  0  0
 25 44  1  0  0  0  0
 27 45  1  0  0  0  0
 28 46  1  0  0  0  0
M  END
$$$$
