8SI5
  PyMOL3.1          3D                             0

 57 63  0  0  0  0  0  0  0  0999 V2000
  153.1440  156.5270  122.3910 C   0  0  0  0  0  0  0  0  0  0  0  0
  152.8360  155.0840  122.5100 C   0  0  0  0  0  0  0  0  0  0  0  0
  153.0420  155.9000  123.7210 C   0  0  0  0  0  0  0  0  0  0  0  0
  151.8550  156.2250  124.5720 C   0  0  0  0  0  0  0  0  0  0  0  0
  151.0630  155.0080  124.9830 N   0  3  0  0  0  0  0  0  0  0  0  0
  149.7090  155.4090  125.5050 C   0  0  0  0  0  0  0  0  0  0  0  0
  148.9430  154.3040  126.2080 C   0  0  0  0  0  0  0  0  0  0  0  0
  149.7950  153.5000  127.2060 C   0  0  0  0  0  0  0  0  0  0  0  0
  149.0460  153.1800  128.5220 C   0  0  0  0  0  0  0  0  0  0  0  0
  149.9710  152.9120  129.6020 C   0  0  0  0  0  0  0  0  0  0  0  0
  151.3130  152.9990  129.5680 C   0  0  0  0  0  0  0  0  0  0  0  0
  152.0610  153.3580  128.3230 C   0  0  0  0  0  0  0  0  0  0  0  0
  151.2030  154.1060  127.3020 C   0  0  0  0  0  0  0  0  0  0  0  0
  151.8110  154.0290  125.8780 C   0  0  0  0  0  0  0  0  0  0  0  0
  151.8760  152.6190  125.2550 C   0  0  0  0  0  0  0  0  0  0  0  0
  150.8290  151.6590  125.7600 C   0  0  0  0  0  0  0  0  0  0  0  0
  149.9290  152.1130  126.6920 C   0  0  0  0  0  0  0  0  0  0  0  0
  148.9800  151.3170  127.2740 C   0  0  0  0  0  0  0  0  0  0  0  0
  148.8650  149.9920  126.9190 C   0  0  0  0  0  0  0  0  0  0  0  0
  149.7490  149.5010  125.9630 C   0  0  0  0  0  0  0  0  0  0  0  0
  150.7060  150.3240  125.3910 C   0  0  0  0  0  0  0  0  0  0  0  0
  147.9480  149.1870  127.4970 O   0  0  0  0  0  0  0  0  0  0  0  0
  148.2410  151.9890  128.2170 O   0  0  0  0  0  0  0  0  0  0  0  0
  151.2680  155.4620  127.7670 O   0  0  0  0  0  0  0  0  0  0  0  0
  151.7690  152.6300  130.8710 C   0  0  0  0  0  0  0  0  0  0  0  0
  153.0110  152.5150  131.4870 C   0  0  0  0  0  0  0  0  0  0  0  0
  153.0800  152.0520  132.7900 C   0  0  0  0  0  0  0  0  0  0  0  0
  151.9280  151.7260  133.4880 C   0  0  0  0  0  0  0  0  0  0  0  0
  150.6840  151.8540  132.8950 C   0  0  0  0  0  0  0  0  0  0  0  0
  150.6360  152.3090  131.5970 C   0  0  0  0  0  0  0  0  0  0  0  0
  149.5090  152.4880  130.8280 O   0  0  0  0  0  0  0  0  0  0  0  0
  150.9130  154.5900  124.2290 H   0  0  0  0  0  0  0  0  0  0  0  0
  153.8670  155.7600  124.2260 H   0  0  0  0  0  0  0  0  0  0  0  0
  148.4460  153.8990  128.7980 H   0  0  0  0  0  0  0  0  0  0  0  0
  152.7260  154.3510  125.9200 H   0  0  0  0  0  0  0  0  0  0  0  0
  149.7060  148.5670  125.6970 H   0  0  0  0  0  0  0  0  0  0  0  0
  151.2930  149.9460  124.7120 H   0  0  0  0  0  0  0  0  0  0  0  0
  148.0380  148.4210  127.1630 H   0  0  0  0  0  0  0  0  0  0  0  0
  152.0730  155.7150  127.7290 H   0  0  0  0  0  0  0  0  0  0  0  0
  153.8300  152.7680  131.0240 H   0  0  0  0  0  0  0  0  0  0  0  0
  152.4280  157.1050  122.0650 H   0  0  0  0  0  0  0  0  0  0  0  0
  153.9490  151.9520  133.2140 H   0  0  0  0  0  0  0  0  0  0  0  0
  154.0310  156.7760  122.0680 H   0  0  0  0  0  0  0  0  0  0  0  0
  151.9880  151.3850  134.3980 H   0  0  0  0  0  0  0  0  0  0  0  0
  149.8690  151.6190  133.3740 H   0  0  0  0  0  0  0  0  0  0  0  0
  153.5180  154.4400  122.2300 H   0  0  0  0  0  0  0  0  0  0  0  0
  151.9200  154.7970  122.3250 H   0  0  0  0  0  0  0  0  0  0  0  0
  151.2420  156.7900  124.0590 H   0  0  0  0  0  0  0  0  0  0  0  0
  152.1360  156.7040  125.3770 H   0  0  0  0  0  0  0  0  0  0  0  0
  149.2200  155.6650  124.7010 H   0  0  0  0  0  0  0  0  0  0  0  0
  149.7870  156.2340  126.0250 H   0  0  0  0  0  0  0  0  0  0  0  0
  148.1700  154.6960  126.6520 H   0  0  0  0  0  0  0  0  0  0  0  0
  148.5770  153.7280  125.5140 H   0  0  0  0  0  0  0  0  0  0  0  0
  152.8050  153.9280  128.5760 H   0  0  0  0  0  0  0  0  0  0  0  0
  152.4480  152.5370  127.9720 H   0  0  0  0  0  0  0  0  0  0  0  0
  152.7430  152.2410  125.4900 H   0  0  0  0  0  0  0  0  0  0  0  0
  151.8340  152.6650  124.2820 H   0  0  0  0  0  0  0  0  0  0  0  0
  1  2  1  0  0  0  0
  1  3  1  0  0  0  0
  2  3  1  0  0  0  0
  3  4  1  0  0  0  0
  4  5  1  0  0  0  0
  5  6  1  0  0  0  0
  6  7  1  0  0  0  0
  7  8  1  0  0  0  0
  8  9  1  0  0  0  0
  9 10  1  0  0  0  0
 10 11  2  0  0  0  0
 11 12  1  0  0  0  0
  8 13  1  0  0  0  0
 12 13  1  0  0  0  0
  5 14  1  0  0  0  0
 13 14  1  0  0  0  0
 14 15  1  0  0  0  0
 15 16  1  0  0  0  0
  8 17  1  0  0  0  0
 16 17  1  0  0  0  0
 17 18  2  0  0  0  0
 18 19  1  0  0  0  0
 19 20  2  0  0  0  0
 16 21  2  0  0  0  0
 20 21  1  0  0  0  0
 19 22  1  0  0  0  0
  9 23  1  0  0  0  0
 18 23  1  0  0  0  0
 13 24  1  0  0  0  0
 11 25  1  0  0  0  0
 25 26  2  0  0  0  0
 26 27  1  0  0  0  0
 27 28  2  0  0  0  0
 28 29  1  0  0  0  0
 25 30  1  0  0  0  0
 29 30  2  0  0  0  0
 10 31  1  0  0  0  0
 30 31  1  0  0  0  0
  3 33  1  0  0  0  0
  9 34  1  0  0  0  0
 14 35  1  0  0  0  0
 20 36  1  0  0  0  0
 21 37  1  0  0  0  0
 22 38  1  0  0  0  0
 24 39  1  0  0  0  0
 26 40  1  0  0  0  0
  1 41  1  0  0  0  0
 27 42  1  0  0  0  0
  1 43  1  0  0  0  0
 28 44  1  0  0  0  0
 29 45  1  0  0  0  0
  2 46  1  0  0  0  0
  2 47  1  0  0  0  0
  4 48  1  0  0  0  0
  4 49  1  0  0  0  0
  6 50  1  0  0  0  0
  6 51  1  0  0  0  0
  7 52  1  0  0  0  0
  7 53  1  0  0  0  0
 12 54  1  0  0  0  0
 12 55  1  0  0  0  0
 15 56  1  0  0  0  0
 15 57  1  0  0  0  0
M  END
$$$$
