8Y93
  PyMOL3.1          3D                             0

 21 23  0  0  0  0  0  0  0  0999 V2000
  117.8210  113.9270   92.5210 N   0  0  0  0  0  0  0  0  0  0  0  0
  117.4450  114.6670   97.1260 C   0  0  0  0  0  0  0  0  0  0  0  0
  117.7330  117.1700   97.2440 C   0  0  0  0  0  0  0  0  0  0  0  0
  118.6940  114.9620   99.3750 C   0  0  0  0  0  0  0  0  0  0  0  0
  116.9240  116.1210   96.9490 C   0  0  0  0  0  0  0  0  0  0  0  0
  117.9560  114.2190   98.4990 C   0  0  0  0  0  0  0  0  0  0  0  0
  117.4400  113.6820   96.2100 C   0  0  0  0  0  0  0  0  0  0  0  0
  117.3120  118.5110   97.1370 C   0  0  0  0  0  0  0  0  0  0  0  0
  119.0430  114.3960  100.6220 C   0  0  0  0  0  0  0  0  0  0  0  0
  115.5890  116.3770   96.5410 C   0  0  0  0  0  0  0  0  0  0  0  0
  117.5600  112.9160   98.8570 C   0  0  0  0  0  0  0  0  0  0  0  0
  117.9830  114.4700   93.8400 C   0  0  0  0  0  0  0  0  0  0  0  0
  116.0120  118.7590   96.7210 C   0  0  0  0  0  0  0  0  0  0  0  0
  118.6740  113.1100  100.9630 C   0  0  0  0  0  0  0  0  0  0  0  0
  115.1540  117.6950   96.4220 C   0  0  0  0  0  0  0  0  0  0  0  0
  117.9200  112.3700  100.0760 C   0  0  0  0  0  0  0  0  0  0  0  0
  117.0090  114.8130   91.7200 C   0  0  0  0  0  0  0  0  0  0  0  0
  116.9730  112.8400   92.8320 C   0  0  0  0  0  0  0  0  0  0  0  0
  119.1840  116.9460   97.7080 C   0  0  0  0  0  0  0  0  0  0  0  0
  119.1820  116.4050   99.1320 C   0  0  0  0  0  0  0  0  0  0  0  0
  116.9620  113.7710   94.7440 C   0  0  0  0  0  0  0  0  0  0  0  0
  2  5  1  0  0  0  0
  3  5  2  0  0  0  0
  2  6  1  0  0  0  0
  4  6  2  0  0  0  0
  2  7  2  0  0  0  0
  3  8  1  0  0  0  0
  4  9  1  0  0  0  0
  5 10  1  0  0  0  0
  6 11  1  0  0  0  0
  1 12  1  0  0  0  0
  8 13  2  0  0  0  0
  9 14  2  0  0  0  0
 10 15  2  0  0  0  0
 13 15  1  0  0  0  0
 11 16  2  0  0  0  0
 14 16  1  0  0  0  0
  1 17  1  0  0  0  0
  1 18  1  0  0  0  0
  3 19  1  0  0  0  0
  4 20  1  0  0  0  0
 19 20  1  0  0  0  0
  7 21  1  0  0  0  0
 12 21  1  0  0  0  0
M  END
$$$$
