7SIM
  PyMOL3.1          3D                             0

 32 36  0  0  0  0  0  0  0  0999 V2000
  200.5040  204.1180  272.3840 N   0  0  0  0  0  0  0  0  0  0  0  0
  200.4650  205.5590  272.5800 C   0  0  0  0  0  0  0  0  0  0  0  0
  201.7710  206.0960  273.0780 C   0  0  0  0  0  0  0  0  0  0  0  0
  199.3710  205.9490  273.5660 C   0  0  0  0  0  0  0  0  0  0  0  0
  198.1470  205.1600  273.2080 C   0  0  0  0  0  0  0  0  0  0  0  0
  198.1380  203.9540  272.3640 C   0  0  0  0  0  0  0  0  0  0  0  0
  196.7430  205.3570  273.5840 C   0  0  0  0  0  0  0  0  0  0  0  0
  196.0070  204.2570  272.9330 C   0  0  0  0  0  0  0  0  0  0  0  0
  196.1160  206.3130  274.3600 C   0  0  0  0  0  0  0  0  0  0  0  0
  196.8780  203.4910  272.2470 N   0  0  0  0  0  0  0  0  0  0  0  0
  194.6390  204.2040  273.1210 C   0  0  0  0  0  0  0  0  0  0  0  0
  194.7410  206.2050  274.5130 C   0  0  0  0  0  0  0  0  0  0  0  0
  194.0240  205.1760  273.9070 C   0  0  0  0  0  0  0  0  0  0  0  0
  201.8300  207.2950  273.4010 O   0  0  0  0  0  0  0  0  0  0  0  0
  202.7460  205.3270  273.1560 O   0  0  0  0  0  0  0  0  0  0  0  0
  199.4020  203.4090  271.7600 C   0  0  0  0  0  0  0  0  0  0  0  0
  224.4430  220.8490  272.3800 N   0  0  0  0  0  0  0  0  0  0  0  0
  224.4800  219.4070  272.5760 C   0  0  0  0  0  0  0  0  0  0  0  0
  223.1750  218.8720  273.0730 C   0  0  0  0  0  0  0  0  0  0  0  0
  225.5760  219.0130  273.5590 C   0  0  0  0  0  0  0  0  0  0  0  0
  226.8000  219.8010  273.2010 C   0  0  0  0  0  0  0  0  0  0  0  0
  226.8100  221.0090  272.3580 C   0  0  0  0  0  0  0  0  0  0  0  0
  228.2030  219.6030  273.5770 C   0  0  0  0  0  0  0  0  0  0  0  0
  228.9400  220.7030  272.9260 C   0  0  0  0  0  0  0  0  0  0  0  0
  228.8270  218.6450  274.3520 C   0  0  0  0  0  0  0  0  0  0  0  0
  228.0700  221.4700  272.2420 N   0  0  0  0  0  0  0  0  0  0  0  0
  230.3090  220.7510  273.1170 C   0  0  0  0  0  0  0  0  0  0  0  0
  230.2010  218.7520  274.5060 C   0  0  0  0  0  0  0  0  0  0  0  0
  230.9210  219.7800  273.9020 C   0  0  0  0  0  0  0  0  0  0  0  0
  223.1150  217.6740  273.4020 O   0  0  0  0  0  0  0  0  0  0  0  0
  222.2000  219.6410  273.1470 O   0  0  0  0  0  0  0  0  0  0  0  0
  225.5470  221.5550  271.7540 C   0  0  0  0  0  0  0  0  0  0  0  0
  1  2  1  0  0  0  0
  2  3  1  0  0  0  0
  2  4  1  0  0  0  0
  4  5  1  0  0  0  0
  5  6  2  0  0  0  0
  5  7  1  0  0  0  0
  7  8  2  0  0  0  0
  7  9  1  0  0  0  0
  6 10  1  0  0  0  0
  8 10  1  0  0  0  0
  8 11  1  0  0  0  0
  9 12  2  0  0  0  0
 11 13  2  0  0  0  0
 12 13  1  0  0  0  0
  3 14  1  0  0  0  0
  3 15  2  0  0  0  0
  1 16  1  0  0  0  0
  6 16  1  0  0  0  0
 17 18  1  0  0  0  0
 18 19  1  0  0  0  0
 18 20  1  0  0  0  0
 20 21  1  0  0  0  0
 21 22  2  0  0  0  0
 21 23  1  0  0  0  0
 23 24  2  0  0  0  0
 23 25  1  0  0  0  0
 22 26  1  0  0  0  0
 24 26  1  0  0  0  0
 24 27  1  0  0  0  0
 25 28  2  0  0  0  0
 27 29  2  0  0  0  0
 28 29  1  0  0  0  0
 19 30  1  0  0  0  0
 19 31  2  0  0  0  0
 17 32  1  0  0  0  0
 22 32  1  0  0  0  0
M  END
$$$$
