7ZEH
  PyMOL3.1          3D                             0

 20 22  0  0  0  0  0  0  0  0999 V2000
   33.3042   37.1064   20.5566 C   0  0  0  0  0  0  0  0  0  0  0  0
   32.7225   33.5946   20.4298 N   0  0  0  0  0  0  0  0  0  0  0  0
   30.2998   38.6188   19.3027 C   0  0  0  0  0  0  0  0  0  0  0  0
   31.9958   40.0980   20.3500 C   0  0  0  0  0  0  0  0  0  0  0  0
   31.3156   35.3073   19.7659 N   0  0  0  0  0  0  0  0  0  0  0  0
   31.1639   36.6339   19.6713 C   0  0  0  0  0  0  0  0  0  0  0  0
   33.4938   35.7751   20.6746 N   0  0  0  0  0  0  0  0  0  0  0  0
   30.4713   40.8565   22.2170 C   0  0  0  0  0  0  0  0  0  0  0  0
   32.5096   34.9319   20.2755 C   0  0  0  0  0  0  0  0  0  0  0  0
   34.2215   37.8258   20.9054 O   0  5  0  0  0  0  0  0  0  0  0  0
   31.6356   40.2103   21.8199 C   0  0  0  0  0  0  0  0  0  0  0  0
   31.4936   38.8220   19.8316 N   0  0  0  0  0  0  0  0  0  0  0  0
   32.0853   37.5727   20.0295 C   0  0  0  0  0  0  0  0  0  0  0  0
   30.1123   40.9379   23.5570 C   0  0  0  0  0  0  0  0  0  0  0  0
   30.0755   37.3115   19.2147 N   0  0  0  0  0  0  0  0  0  0  0  0
   30.9356   40.3591   24.4840 C   0  0  0  0  0  0  0  0  0  0  0  0
   32.0723   39.7116   24.1084 C   0  0  0  0  0  0  0  0  0  0  0  0
   32.4337   39.6114   22.7829 C   0  0  0  0  0  0  0  0  0  0  0  0
   30.6329   40.4108   25.7958 F   0  0  0  0  0  0  0  0  0  0  0  0
   32.8384   39.1501   25.0725 F   0  0  0  0  0  0  0  0  0  0  0  0
  5  6  1  0  0  0  0
  1  7  2  0  0  0  0
  2  9  1  0  0  0  0
  5  9  2  0  0  0  0
  7  9  1  0  0  0  0
  1 10  1  0  0  0  0
  4 11  1  0  0  0  0
  8 11  1  0  0  0  0
  3 12  2  0  0  0  0
  4 12  1  0  0  0  0
  1 13  1  0  0  0  0
  6 13  2  0  0  0  0
 12 13  1  0  0  0  0
  8 14  2  0  0  0  0
  3 15  1  0  0  0  0
  6 15  1  0  0  0  0
 14 16  1  0  0  0  0
 16 17  2  0  0  0  0
 11 18  2  0  0  0  0
 17 18  1  0  0  0  0
 16 19  1  0  0  0  0
 17 20  1  0  0  0  0
M  END
$$$$
