6SWX
  PyMOL3.1          3D                             0

 25 27  0  0  0  0  0  0  0  0999 V2000
  -36.9860  -38.8130   25.7730 N   0  0  0  0  0  0  0  0  0  0  0  0
  -32.5180  -38.1590   24.0210 C   0  0  0  0  0  0  0  0  0  0  0  0
  -33.8230  -37.7330   24.4940 O   0  0  0  0  0  0  0  0  0  0  0  0
  -34.7980  -38.6450   24.5490 C   0  0  0  0  0  0  0  0  0  0  0  0
  -35.4860  -39.2050   27.4950 N   0  0  0  0  0  0  0  0  0  0  0  0
  -34.6700  -39.7910   24.2560 O   0  0  0  0  0  0  0  0  0  0  0  0
  -36.0680  -37.9910   25.0300 C   0  0  0  0  0  0  0  0  0  0  0  0
  -36.0060  -40.7350   29.2770 N   0  0  0  0  0  0  0  0  0  0  0  0
  -36.6630  -39.4570   26.9010 C   0  0  0  0  0  0  0  0  0  0  0  0
  -38.1900  -41.7160   29.0830 N   0  0  0  0  0  0  0  0  0  0  0  0
  -35.2030  -39.8580   28.6370 C   0  0  0  0  0  0  0  0  0  0  0  0
  -39.2370  -41.6860   28.2070 N   0  0  0  0  0  0  0  0  0  0  0  0
  -37.1810  -40.9300   28.6580 C   0  0  0  0  0  0  0  0  0  0  0  0
  -34.0490  -39.5020   29.2840 N   0  0  0  0  0  0  0  0  0  0  0  0
  -38.8870  -40.8580   27.2480 C   0  0  0  0  0  0  0  0  0  0  0  0
  -37.5920  -40.3470   27.4620 C   0  0  0  0  0  0  0  0  0  0  0  0
  -38.3460  -42.5170   30.2970 C   0  0  0  0  0  0  0  0  0  0  0  0
  -33.1170  -38.4740   29.0580 C   0  0  0  0  0  0  0  0  0  0  0  0
  -33.1500  -37.6270   27.9460 C   0  0  0  0  0  0  0  0  0  0  0  0
  -32.2340  -36.5780   27.8260 C   0  0  0  0  0  0  0  0  0  0  0  0
  -31.3240  -36.3870   28.8290 C   0  0  0  0  0  0  0  0  0  0  0  0
  -31.2820  -37.2330   29.9100 C   0  0  0  0  0  0  0  0  0  0  0  0
  -32.1620  -38.2770   30.0410 C   0  0  0  0  0  0  0  0  0  0  0  0
  -30.3790  -37.0020   30.8600 F   0  0  0  0  0  0  0  0  0  0  0  0
  -30.5410  -35.3130   28.8390 F   0  0  0  0  0  0  0  0  0  0  0  0
  2  3  1  0  0  0  0
  3  4  1  0  0  0  0
  4  6  2  0  0  0  0
  1  7  1  0  0  0  0
  4  7  1  0  0  0  0
  1  9  1  0  0  0  0
  5  9  1  0  0  0  0
  5 11  2  0  0  0  0
  8 11  1  0  0  0  0
 10 12  1  0  0  0  0
  8 13  2  0  0  0  0
 10 13  1  0  0  0  0
 11 14  1  0  0  0  0
 12 15  2  0  0  0  0
  9 16  2  0  0  0  0
 13 16  1  0  0  0  0
 15 16  1  0  0  0  0
 10 17  1  0  0  0  0
 14 18  1  0  0  0  0
 18 19  1  0  0  0  0
 19 20  2  0  0  0  0
 20 21  1  0  0  0  0
 21 22  2  0  0  0  0
 18 23  2  0  0  0  0
 22 23  1  0  0  0  0
 22 24  1  0  0  0  0
 21 25  1  0  0  0  0
M  END
$$$$
