7OD0
  PyMOL3.1          3D                             0

 18 19  0  0  0  0  0  0  0  0999 V2000
   30.8960    5.4330    0.3040 C   0  0  0  0  0  0  0  0  0  0  0  0
   30.4160    6.7620   -0.1040 N   0  0  0  0  0  0  0  0  0  0  0  0
   28.8450    5.2600   -3.7350 S   0  0  0  0  0  0  0  0  0  0  0  0
   31.0370    4.4550   -0.8410 C   0  0  0  0  0  0  0  0  0  0  0  0
   29.4980    3.8120   -4.0450 N   0  0  0  0  0  0  0  0  0  0  0  0
   31.9630    3.4190   -0.7980 C   0  0  0  0  0  0  0  0  0  0  0  0
   29.2830    5.4760   -2.1950 N   0  0  0  0  0  0  0  0  0  0  0  0
   32.0880    2.5010   -1.8290 C   0  0  0  0  0  0  0  0  0  0  0  0
   31.3210    2.5570   -2.9580 C   0  0  0  0  0  0  0  0  0  0  0  0
   30.3640    3.5910   -3.0390 C   0  0  0  0  0  0  0  0  0  0  0  0
   30.2220    4.5330   -1.9650 C   0  0  0  0  0  0  0  0  0  0  0  0
   29.5030    6.6320   -0.3850 H   0  0  0  0  0  0  0  0  0  0  0  0
   30.9340    6.9990   -0.8840 H   0  0  0  0  0  0  0  0  0  0  0  0
   30.2670    5.0610    0.9570 H   0  0  0  0  0  0  0  0  0  0  0  0
   31.7670    5.5320    0.7430 H   0  0  0  0  0  0  0  0  0  0  0  0
   32.5250    3.3380   -0.0300 H   0  0  0  0  0  0  0  0  0  0  0  0
   32.7340    1.8200   -1.7570 H   0  0  0  0  0  0  0  0  0  0  0  0
   31.4150    1.9330   -3.6430 H   0  0  0  0  0  0  0  0  0  0  0  0
  1  2  1  0  0  0  0
  1  4  1  0  0  0  0
  3  5  1  0  0  0  0
  4  6  2  0  0  0  0
  3  7  1  0  0  0  0
  6  8  1  0  0  0  0
  8  9  2  0  0  0  0
  5 10  2  0  0  0  0
  9 10  1  0  0  0  0
  4 11  1  0  0  0  0
  7 11  2  0  0  0  0
 10 11  1  0  0  0  0
  2 12  1  0  0  0  0
  2 13  1  0  0  0  0
  1 14  1  0  0  0  0
  1 15  1  0  0  0  0
  6 16  1  0  0  0  0
  8 17  1  0  0  0  0
  9 18  1  0  0  0  0
M  END
$$$$
