7OD0
  PyMOL3.1          3D                             0

 18 19  0  0  0  0  0  0  0  0999 V2000
    0.6110  -30.2860    0.4830 C   0  0  0  0  0  0  0  0  0  0  0  0
   -0.1800  -31.5190    0.2830 N   0  0  0  0  0  0  0  0  0  0  0  0
    1.5010  -32.2960   -3.4860 S   0  0  0  0  0  0  0  0  0  0  0  0
    1.3590  -29.8000   -0.7370 C   0  0  0  0  0  0  0  0  0  0  0  0
    2.4490  -31.0680   -3.9370 N   0  0  0  0  0  0  0  0  0  0  0  0
    1.8660  -28.5010   -0.8010 C   0  0  0  0  0  0  0  0  0  0  0  0
    1.1600  -31.8920   -1.9610 N   0  0  0  0  0  0  0  0  0  0  0  0
    2.5880  -28.0400   -1.8900 C   0  0  0  0  0  0  0  0  0  0  0  0
    2.8270  -28.8250   -2.9770 C   0  0  0  0  0  0  0  0  0  0  0  0
    2.3260  -30.1460   -2.9580 C   0  0  0  0  0  0  0  0  0  0  0  0
    1.5890  -30.6240   -1.8240 C   0  0  0  0  0  0  0  0  0  0  0  0
    0.4610  -32.2050    0.0570 H   0  0  0  0  0  0  0  0  0  0  0  0
   -0.7230  -31.3540   -0.4980 H   0  0  0  0  0  0  0  0  0  0  0  0
    1.2610  -30.4600    1.1970 H   0  0  0  0  0  0  0  0  0  0  0  0
    0.0110  -29.5740    0.7890 H   0  0  0  0  0  0  0  0  0  0  0  0
    1.7360  -27.9230   -0.0510 H   0  0  0  0  0  0  0  0  0  0  0  0
    2.9150  -27.1570   -1.8850 H   0  0  0  0  0  0  0  0  0  0  0  0
    3.3000  -28.5040   -3.7140 H   0  0  0  0  0  0  0  0  0  0  0  0
  1  2  1  0  0  0  0
  1  4  1  0  0  0  0
  3  5  1  0  0  0  0
  4  6  2  0  0  0  0
  3  7  1  0  0  0  0
  6  8  1  0  0  0  0
  8  9  2  0  0  0  0
  5 10  2  0  0  0  0
  9 10  1  0  0  0  0
  4 11  1  0  0  0  0
  7 11  2  0  0  0  0
 10 11  1  0  0  0  0
  2 12  1  0  0  0  0
  2 13  1  0  0  0  0
  1 14  1  0  0  0  0
  1 15  1  0  0  0  0
  6 16  1  0  0  0  0
  8 17  1  0  0  0  0
  9 18  1  0  0  0  0
M  END
$$$$
