8SXB
  PyMOL3.1          3D                             0

 56 56  0  0  0  0  0  0  0  0999 V2000
  134.4850  128.6060  116.6930 C   0  0  0  0  0  0  0  0  0  0  0  0
  135.4830  128.3200  116.0740 O   0  0  0  0  0  0  0  0  0  0  0  0
  133.1640  128.1520  116.1110 C   0  0  0  0  0  0  0  0  0  0  0  0
  134.5290  129.2290  117.7320 O   0  0  0  0  0  0  0  0  0  0  0  0
  131.9210  128.4390  116.9830 C   0  0  0  0  0  0  0  0  0  0  0  0
  131.4960  124.8300  111.8460 O   0  0  0  0  0  0  0  0  0  0  0  0
  130.6220  127.9640  116.2980 C   0  0  0  0  0  0  0  0  0  0  0  0
  129.5860  120.4960  112.3720 O   0  0  0  0  0  0  0  0  0  0  0  0
  130.6170  126.4720  116.0730 C   0  0  0  0  0  0  0  0  0  0  0  0
  127.5320  120.2930  117.6620 O   0  0  0  0  0  0  0  0  0  0  0  0
  131.0950  125.8760  114.9840 C   0  0  0  0  0  0  0  0  0  0  0  0
  131.1720  124.3830  114.8370 C   0  0  0  0  0  0  0  0  0  0  0  0
  130.2770  123.8450  113.7100 C   0  0  0  0  0  0  0  0  0  0  0  0
  130.8920  123.8890  112.3200 C   0  0  0  0  0  0  0  0  0  0  0  0
  130.6270  122.5940  111.5870 C   0  0  0  0  0  0  0  0  0  0  0  0
  129.5900  121.9080  112.4820 C   0  0  0  0  0  0  0  0  0  0  0  0
  129.9190  122.3650  113.9060 C   0  0  0  0  0  0  0  0  0  0  0  0
  128.7300  122.2030  114.8150 C   0  0  0  0  0  0  0  0  0  0  0  0
  128.6530  121.4020  115.8710 C   0  0  0  0  0  0  0  0  0  0  0  0
  127.5070  121.4460  116.8360 C   0  0  0  0  0  0  0  0  0  0  0  0
  127.6520  122.7310  117.6510 C   0  0  0  0  0  0  0  0  0  0  0  0
  126.5300  123.0010  118.6630 C   0  0  0  0  0  0  0  0  0  0  0  0
  126.8280  124.2270  119.5550 C   0  0  0  0  0  0  0  0  0  0  0  0
  127.2740  125.4900  118.7800 C   0  0  0  0  0  0  0  0  0  0  0  0
  127.3810  126.7070  119.6980 C   0  0  0  0  0  0  0  0  0  0  0  0
  129.0550  120.2190  112.9510 H   0  0  0  0  0  0  0  0  0  0  0  0
  127.9880  120.4610  118.3390 H   0  0  0  0  0  0  0  0  0  0  0  0
  133.0590  128.5590  115.2700 H   0  0  0  0  0  0  0  0  0  0  0  0
  132.0110  128.0140  117.8170 H   0  0  0  0  0  0  0  0  0  0  0  0
  129.8850  128.2090  116.8290 H   0  0  0  0  0  0  0  0  0  0  0  0
  130.2940  125.9540  116.8040 H   0  0  0  0  0  0  0  0  0  0  0  0
  131.4800  126.3850  114.2770 H   0  0  0  0  0  0  0  0  0  0  0  0
  130.9160  123.9800  115.6480 H   0  0  0  0  0  0  0  0  0  0  0  0
  129.4850  124.3510  113.6790 H   0  0  0  0  0  0  0  0  0  0  0  0
  130.2960  122.7540  110.7220 H   0  0  0  0  0  0  0  0  0  0  0  0
  128.7430  122.2450  112.2530 H   0  0  0  0  0  0  0  0  0  0  0  0
  130.6650  121.8900  114.2250 H   0  0  0  0  0  0  0  0  0  0  0  0
  127.9530  122.6840  114.5470 H   0  0  0  0  0  0  0  0  0  0  0  0
  129.4280  120.9440  116.1800 H   0  0  0  0  0  0  0  0  0  0  0  0
  126.6960  121.4780  116.3610 H   0  0  0  0  0  0  0  0  0  0  0  0
  128.4760  122.7170  118.1030 H   0  0  0  0  0  0  0  0  0  0  0  0
  125.7190  123.1280  118.2020 H   0  0  0  0  0  0  0  0  0  0  0  0
  126.0560  124.4250  120.0550 H   0  0  0  0  0  0  0  0  0  0  0  0
  128.1140  125.3500  118.3820 H   0  0  0  0  0  0  0  0  0  0  0  0
  126.5470  126.9200  120.0780 H   0  0  0  0  0  0  0  0  0  0  0  0
  133.2450  127.2270  115.9630 H   0  0  0  0  0  0  0  0  0  0  0  0
  131.8650  129.3630  117.1500 H   0  0  0  0  0  0  0  0  0  0  0  0
  130.5210  128.4170  115.4790 H   0  0  0  0  0  0  0  0  0  0  0  0
  132.0610  124.1220  114.6790 H   0  0  0  0  0  0  0  0  0  0  0  0
  131.4240  122.0960  111.5420 H   0  0  0  0  0  0  0  0  0  0  0  0
  127.6930  123.4490  117.0450 H   0  0  0  0  0  0  0  0  0  0  0  0
  126.4060  122.2470  119.2120 H   0  0  0  0  0  0  0  0  0  0  0  0
  127.4950  123.9990  120.1770 H   0  0  0  0  0  0  0  0  0  0  0  0
  126.6650  125.6740  118.0870 H   0  0  0  0  0  0  0  0  0  0  0  0
  127.6840  127.4600  119.2240 H   0  0  0  0  0  0  0  0  0  0  0  0
  127.9860  126.5470  120.4010 H   0  0  0  0  0  0  0  0  0  0  0  0
  1  2  2  0  0  0  0
  1  3  1  0  0  0  0
  1  4  1  0  0  0  0
  3  5  1  0  0  0  0
  5  7  1  0  0  0  0
  7  9  1  0  0  0  0
  9 11  2  0  0  0  0
 11 12  1  0  0  0  0
 12 13  1  0  0  0  0
  6 14  2  0  0  0  0
 13 14  1  0  0  0  0
 14 15  1  0  0  0  0
  8 16  1  0  0  0  0
 15 16  1  0  0  0  0
 13 17  1  0  0  0  0
 16 17  1  0  0  0  0
 17 18  1  0  0  0  0
 18 19  2  0  0  0  0
 10 20  1  0  0  0  0
 19 20  1  0  0  0  0
 20 21  1  0  0  0  0
 21 22  1  0  0  0  0
 22 23  1  0  0  0  0
 23 24  1  0  0  0  0
 24 25  1  0  0  0  0
  8 26  1  0  0  0  0
 10 27  1  0  0  0  0
  3 28  1  0  0  0  0
  5 29  1  0  0  0  0
  7 30  1  0  0  0  0
  9 31  1  0  0  0  0
 11 32  1  0  0  0  0
 12 33  1  0  0  0  0
 13 34  1  0  0  0  0
 15 35  1  0  0  0  0
 16 36  1  0  0  0  0
 17 37  1  0  0  0  0
 18 38  1  0  0  0  0
 19 39  1  0  0  0  0
 20 40  1  0  0  0  0
 21 41  1  0  0  0  0
 22 42  1  0  0  0  0
 23 43  1  0  0  0  0
 24 44  1  0  0  0  0
 25 45  1  0  0  0  0
  3 46  1  0  0  0  0
  5 47  1  0  0  0  0
  7 48  1  0  0  0  0
 12 49  1  0  0  0  0
 15 50  1  0  0  0  0
 21 51  1  0  0  0  0
 22 52  1  0  0  0  0
 23 53  1  0  0  0  0
 24 54  1  0  0  0  0
 25 55  1  0  0  0  0
 25 56  1  0  0  0  0
M  END
$$$$
