7DXG
  PyMOL3.1          3D                             0

 26 29  0  0  0  0  0  0  0  0999 V2000
  138.1390  110.4010  154.9280 N   0  0  0  0  0  0  0  0  0  0  0  0
  137.2120  111.4720  154.5210 C   0  0  0  0  0  0  0  0  0  0  0  0
  135.9100  110.9780  152.5510 O   0  0  0  0  0  0  0  0  0  0  0  0
  137.0150  110.8780  149.7080 Cl  0  0  0  0  0  0  0  0  0  0  0  0
  135.8690  110.9560  153.9750 C   0  0  0  0  0  0  0  0  0  0  0  0
  141.8660  110.5860  155.3610 N   0  0  0  0  0  0  0  0  0  0  0  0
  136.9740  112.4600  155.6770 C   0  0  0  0  0  0  0  0  0  0  0  0
  132.9440  106.4490  148.7510 N   0  0  0  0  0  0  0  0  0  0  0  0
  139.4880  110.9880  154.9720 C   0  0  0  0  0  0  0  0  0  0  0  0
  138.1040  109.2900  153.9640 C   0  0  0  0  0  0  0  0  0  0  0  0
  140.5300  109.9620  155.3990 C   0  0  0  0  0  0  0  0  0  0  0  0
  139.0920  108.2050  154.3720 C   0  0  0  0  0  0  0  0  0  0  0  0
  134.9110  111.9540  154.4780 C   0  0  0  0  0  0  0  0  0  0  0  0
  140.4990  108.7800  154.4410 C   0  0  0  0  0  0  0  0  0  0  0  0
  135.5330  112.8300  155.4650 C   0  0  0  0  0  0  0  0  0  0  0  0
  133.5840  112.1230  154.1240 C   0  0  0  0  0  0  0  0  0  0  0  0
  134.8140  113.8480  156.0670 C   0  0  0  0  0  0  0  0  0  0  0  0
  132.8810  113.1540  154.7470 C   0  0  0  0  0  0  0  0  0  0  0  0
  133.4790  113.9930  155.6930 C   0  0  0  0  0  0  0  0  0  0  0  0
  135.2850  110.0320  151.7830 C   0  0  0  0  0  0  0  0  0  0  0  0
  135.6960  109.8540  150.3730 C   0  0  0  0  0  0  0  0  0  0  0  0
  134.2670  109.2450  152.2980 C   0  0  0  0  0  0  0  0  0  0  0  0
  135.0550  108.9000  149.6010 C   0  0  0  0  0  0  0  0  0  0  0  0
  133.6490  108.2950  151.4790 C   0  0  0  0  0  0  0  0  0  0  0  0
  134.0420  108.1300  150.1450 C   0  0  0  0  0  0  0  0  0  0  0  0
  133.4650  107.2460  149.4130 C   0  0  0  0  0  0  0  0  0  0  0  0
  1  2  1  0  0  0  0
  2  5  1  0  0  0  0
  3  5  1  0  0  0  0
  2  7  1  0  0  0  0
  1  9  1  0  0  0  0
  1 10  1  0  0  0  0
  6 11  1  0  0  0  0
  9 11  1  0  0  0  0
 10 12  1  0  0  0  0
  5 13  1  0  0  0  0
 11 14  1  0  0  0  0
 12 14  1  0  0  0  0
  7 15  1  0  0  0  0
 13 15  1  0  0  0  0
 13 16  2  0  0  0  0
 15 17  2  0  0  0  0
 16 18  1  0  0  0  0
 17 19  1  0  0  0  0
 18 19  2  0  0  0  0
  3 20  1  0  0  0  0
  4 21  1  0  0  0  0
 20 21  2  0  0  0  0
 20 22  1  0  0  0  0
 21 23  1  0  0  0  0
 22 24  2  0  0  0  0
 23 25  2  0  0  0  0
 24 25  1  0  0  0  0
  8 26  3  0  0  0  0
 25 26  1  0  0  0  0
M  END
$$$$
