7DXG
  PyMOL3.1          3D                             0

 26 29  0  0  0  0  0  0  0  0999 V2000
  110.3990  154.4630  154.9250 N   0  0  0  0  0  0  0  0  0  0  0  0
  111.4700  155.3900  154.5180 C   0  0  0  0  0  0  0  0  0  0  0  0
  110.9760  156.6920  152.5480 O   0  0  0  0  0  0  0  0  0  0  0  0
  110.8770  155.5870  149.7050 Cl  0  0  0  0  0  0  0  0  0  0  0  0
  110.9540  156.7330  153.9720 C   0  0  0  0  0  0  0  0  0  0  0  0
  110.5840  150.7360  155.3580 N   0  0  0  0  0  0  0  0  0  0  0  0
  112.4580  155.6280  155.6740 C   0  0  0  0  0  0  0  0  0  0  0  0
  106.4480  159.6570  148.7480 N   0  0  0  0  0  0  0  0  0  0  0  0
  110.9860  153.1140  154.9690 C   0  0  0  0  0  0  0  0  0  0  0  0
  109.2880  154.4980  153.9610 C   0  0  0  0  0  0  0  0  0  0  0  0
  109.9600  152.0720  155.3960 C   0  0  0  0  0  0  0  0  0  0  0  0
  108.2030  153.5100  154.3690 C   0  0  0  0  0  0  0  0  0  0  0  0
  111.9520  157.6910  154.4750 C   0  0  0  0  0  0  0  0  0  0  0  0
  108.7780  152.1030  154.4380 C   0  0  0  0  0  0  0  0  0  0  0  0
  112.8280  157.0690  155.4620 C   0  0  0  0  0  0  0  0  0  0  0  0
  112.1210  159.0180  154.1210 C   0  0  0  0  0  0  0  0  0  0  0  0
  113.8460  157.7880  156.0640 C   0  0  0  0  0  0  0  0  0  0  0  0
  113.1520  159.7210  154.7430 C   0  0  0  0  0  0  0  0  0  0  0  0
  113.9910  159.1230  155.6900 C   0  0  0  0  0  0  0  0  0  0  0  0
  110.0310  157.3170  151.7800 C   0  0  0  0  0  0  0  0  0  0  0  0
  109.8530  156.9060  150.3700 C   0  0  0  0  0  0  0  0  0  0  0  0
  109.2440  158.3350  152.2950 C   0  0  0  0  0  0  0  0  0  0  0  0
  108.8990  157.5470  149.5980 C   0  0  0  0  0  0  0  0  0  0  0  0
  108.2940  158.9530  151.4760 C   0  0  0  0  0  0  0  0  0  0  0  0
  108.1290  158.5600  150.1420 C   0  0  0  0  0  0  0  0  0  0  0  0
  107.2450  159.1360  149.4100 C   0  0  0  0  0  0  0  0  0  0  0  0
  1  2  1  0  0  0  0
  2  5  1  0  0  0  0
  3  5  1  0  0  0  0
  2  7  1  0  0  0  0
  1  9  1  0  0  0  0
  1 10  1  0  0  0  0
  6 11  1  0  0  0  0
  9 11  1  0  0  0  0
 10 12  1  0  0  0  0
  5 13  1  0  0  0  0
 11 14  1  0  0  0  0
 12 14  1  0  0  0  0
  7 15  1  0  0  0  0
 13 15  1  0  0  0  0
 13 16  2  0  0  0  0
 15 17  2  0  0  0  0
 16 18  1  0  0  0  0
 17 19  1  0  0  0  0
 18 19  2  0  0  0  0
  3 20  1  0  0  0  0
  4 21  1  0  0  0  0
 20 21  2  0  0  0  0
 20 22  1  0  0  0  0
 21 23  1  0  0  0  0
 22 24  2  0  0  0  0
 23 25  2  0  0  0  0
 24 25  1  0  0  0  0
  8 26  3  0  0  0  0
 25 26  1  0  0  0  0
M  END
$$$$
