7DXG
  PyMOL3.1          3D                             0

 26 29  0  0  0  0  0  0  0  0999 V2000
  182.2010  138.1410  154.9250 N   0  0  0  0  0  0  0  0  0  0  0  0
  181.1300  137.2140  154.5190 C   0  0  0  0  0  0  0  0  0  0  0  0
  181.6240  135.9120  152.5490 O   0  0  0  0  0  0  0  0  0  0  0  0
  181.7230  137.0170  149.7060 Cl  0  0  0  0  0  0  0  0  0  0  0  0
  181.6460  135.8710  153.9730 C   0  0  0  0  0  0  0  0  0  0  0  0
  182.0160  141.8680  155.3580 N   0  0  0  0  0  0  0  0  0  0  0  0
  180.1420  136.9760  155.6750 C   0  0  0  0  0  0  0  0  0  0  0  0
  186.1530  132.9460  148.7490 N   0  0  0  0  0  0  0  0  0  0  0  0
  181.6140  139.4900  154.9690 C   0  0  0  0  0  0  0  0  0  0  0  0
  183.3120  138.1060  153.9610 C   0  0  0  0  0  0  0  0  0  0  0  0
  182.6400  140.5320  155.3960 C   0  0  0  0  0  0  0  0  0  0  0  0
  184.3970  139.0940  154.3690 C   0  0  0  0  0  0  0  0  0  0  0  0
  180.6490  134.9130  154.4760 C   0  0  0  0  0  0  0  0  0  0  0  0
  183.8220  140.5010  154.4380 C   0  0  0  0  0  0  0  0  0  0  0  0
  179.7730  135.5350  155.4630 C   0  0  0  0  0  0  0  0  0  0  0  0
  180.4800  133.5860  154.1220 C   0  0  0  0  0  0  0  0  0  0  0  0
  178.7550  134.8160  156.0650 C   0  0  0  0  0  0  0  0  0  0  0  0
  179.4490  132.8830  154.7450 C   0  0  0  0  0  0  0  0  0  0  0  0
  178.6100  133.4810  155.6910 C   0  0  0  0  0  0  0  0  0  0  0  0
  182.5690  135.2870  151.7810 C   0  0  0  0  0  0  0  0  0  0  0  0
  182.7470  135.6980  150.3710 C   0  0  0  0  0  0  0  0  0  0  0  0
  183.3570  134.2690  152.2960 C   0  0  0  0  0  0  0  0  0  0  0  0
  183.7010  135.0570  149.5990 C   0  0  0  0  0  0  0  0  0  0  0  0
  184.3070  133.6510  151.4770 C   0  0  0  0  0  0  0  0  0  0  0  0
  184.4720  134.0440  150.1430 C   0  0  0  0  0  0  0  0  0  0  0  0
  185.3560  133.4670  149.4110 C   0  0  0  0  0  0  0  0  0  0  0  0
  1  2  1  0  0  0  0
  2  5  1  0  0  0  0
  3  5  1  0  0  0  0
  2  7  1  0  0  0  0
  1  9  1  0  0  0  0
  1 10  1  0  0  0  0
  6 11  1  0  0  0  0
  9 11  1  0  0  0  0
 10 12  1  0  0  0  0
  5 13  1  0  0  0  0
 11 14  1  0  0  0  0
 12 14  1  0  0  0  0
  7 15  1  0  0  0  0
 13 15  1  0  0  0  0
 13 16  2  0  0  0  0
 15 17  2  0  0  0  0
 16 18  1  0  0  0  0
 17 19  1  0  0  0  0
 18 19  2  0  0  0  0
  3 20  1  0  0  0  0
  4 21  1  0  0  0  0
 20 21  2  0  0  0  0
 20 22  1  0  0  0  0
 21 23  1  0  0  0  0
 22 24  2  0  0  0  0
 23 25  2  0  0  0  0
 24 25  1  0  0  0  0
  8 26  3  0  0  0  0
 25 26  1  0  0  0  0
M  END
$$$$
