8P41
  PyMOL3.1          3D                             0

 30 31  0  0  0  0  0  0  0  0999 V2000
   59.4770   35.5970   -7.1030 Cl  0  0  0  0  0  0  0  0  0  0  0  0
   62.9170   35.6030   -3.1150 O   0  0  0  0  0  0  0  0  0  0  0  0
   61.8180   35.4990   -2.5130 C   0  0  0  0  0  0  0  0  0  0  0  0
   61.6240   35.5680   -1.2750 O   0  0  0  0  0  0  0  0  0  0  0  0
   60.6140   35.2600   -3.3220 C   0  0  0  0  0  0  0  0  0  0  0  0
   60.6260   35.5160   -4.6740 C   0  0  0  0  0  0  0  0  0  0  0  0
   59.4880   35.2850   -5.4070 C   0  0  0  0  0  0  0  0  0  0  0  0
   58.3490   34.8030   -4.8080 C   0  0  0  0  0  0  0  0  0  0  0  0
   58.3410   34.5490   -3.4590 C   0  0  0  0  0  0  0  0  0  0  0  0
   59.4740   34.7790   -2.7170 C   0  0  0  0  0  0  0  0  0  0  0  0
   59.4560   34.5180   -1.3350 N   0  0  0  0  0  0  0  0  0  0  0  0
   58.2990   34.0990   -0.7120 C   0  0  0  0  0  0  0  0  0  0  0  0
   57.1740   34.5170   -0.9280 O   0  0  0  0  0  0  0  0  0  0  0  0
   58.5200   33.0140    0.2940 C   0  0  0  0  0  0  0  0  0  0  0  0
   60.0410   33.2990    1.2210 S   0  0  0  0  0  0  0  0  0  0  0  0
   61.0600   32.0610    0.3950 C   0  0  0  0  0  0  0  0  0  0  0  0
   60.9820   30.6920    0.9790 C   0  0  0  0  0  0  0  0  0  0  0  0
   60.3720   29.6970    0.2560 C   0  0  0  0  0  0  0  0  0  0  0  0
   60.2910   28.4230    0.7570 C   0  0  0  0  0  0  0  0  0  0  0  0
   60.8250   28.1420    1.9890 C   0  0  0  0  0  0  0  0  0  0  0  0
   61.4380   29.1270    2.7240 C   0  0  0  0  0  0  0  0  0  0  0  0
   61.5160   30.4020    2.2140 C   0  0  0  0  0  0  0  0  0  0  0  0
   62.0110   28.7880    4.0600 C   0  0  0  0  0  0  0  0  0  0  0  0
   59.6300   27.3540   -0.0360 C   0  0  0  0  0  0  0  0  0  0  0  0
   61.2830   29.2670    5.1000 F   0  0  0  0  0  0  0  0  0  0  0  0
   62.0970   27.4480    4.2660 F   0  0  0  0  0  0  0  0  0  0  0  0
   63.2740   29.2540    4.2330 F   0  0  0  0  0  0  0  0  0  0  0  0
   60.3770   26.9850   -1.1050 F   0  0  0  0  0  0  0  0  0  0  0  0
   59.4240   26.2220    0.6800 F   0  0  0  0  0  0  0  0  0  0  0  0
   58.4170   27.7080   -0.5270 F   0  0  0  0  0  0  0  0  0  0  0  0
  2  3  2  0  0  0  0
  3  4  1  0  0  0  0
  3  5  1  0  0  0  0
  5  6  2  0  0  0  0
  1  7  1  0  0  0  0
  6  7  1  0  0  0  0
  7  8  2  0  0  0  0
  8  9  1  0  0  0  0
  5 10  1  0  0  0  0
  9 10  2  0  0  0  0
 10 11  1  0  0  0  0
 11 12  1  0  0  0  0
 12 13  2  0  0  0  0
 12 14  1  0  0  0  0
 14 15  1  0  0  0  0
 15 16  1  0  0  0  0
 16 17  1  0  0  0  0
 17 18  1  0  0  0  0
 18 19  2  0  0  0  0
 19 20  1  0  0  0  0
 20 21  2  0  0  0  0
 17 22  2  0  0  0  0
 21 22  1  0  0  0  0
 21 23  1  0  0  0  0
 19 24  1  0  0  0  0
 23 25  1  0  0  0  0
 23 26  1  0  0  0  0
 23 27  1  0  0  0  0
 24 28  1  0  0  0  0
 24 29  1  0  0  0  0
 24 30  1  0  0  0  0
M  END
$$$$
