7XMT
  PyMOL3.1          3D                             0

 33 35  0  0  0  0  0  0  0  0999 V2000
  153.0540  114.8620  146.5160 N   0  0  0  0  0  0  0  0  0  0  0  0
  152.3350  115.3240  145.5050 C   0  0  0  0  0  0  0  0  0  0  0  0
  154.2770  116.6470  141.6730 O   0  0  0  0  0  0  0  0  0  0  0  0
  151.8410  116.7650  145.6160 C   0  0  0  0  0  0  0  0  0  0  0  0
  151.5740  117.2980  144.2910 N   0  0  0  0  0  0  0  0  0  0  0  0
  153.3270  116.9330  139.4080 O   0  0  0  0  0  0  0  0  0  0  0  0
  152.2980  118.2960  143.7760 C   0  0  0  0  0  0  0  0  0  0  0  0
  148.7980  120.8690  143.2580 N   0  0  0  0  0  0  0  0  0  0  0  0
  153.2330  118.8250  144.3720 O   0  0  0  0  0  0  0  0  0  0  0  0
  151.9040  118.7680  142.3770 C   0  0  0  0  0  0  0  0  0  0  0  0
  152.1000  117.7210  141.3730 N   0  0  0  0  0  0  0  0  0  0  0  0
  152.0610  114.6520  144.5080 O   0  0  0  0  0  0  0  0  0  0  0  0
  150.4510  119.2430  142.3670 C   0  0  0  0  0  0  0  0  0  0  0  0
  150.1920  120.4180  143.2970 C   0  0  0  0  0  0  0  0  0  0  0  0
  154.3770  119.0020  140.5790 C   0  0  0  0  0  0  0  0  0  0  0  0
  155.5250  119.1780  141.3060 C   0  0  0  0  0  0  0  0  0  0  0  0
  156.2220  120.3690  141.2470 C   0  0  0  0  0  0  0  0  0  0  0  0
  155.8030  121.4210  140.4650 C   0  0  0  0  0  0  0  0  0  0  0  0
  156.5890  122.7030  140.4360 C   0  0  0  0  0  0  0  0  0  0  0  0
  154.6100  121.2710  139.6900 C   0  0  0  0  0  0  0  0  0  0  0  0
  153.8780  120.0450  139.7410 C   0  0  0  0  0  0  0  0  0  0  0  0
  152.6990  119.9290  138.9610 C   0  0  0  0  0  0  0  0  0  0  0  0
  152.2720  120.9600  138.1770 C   0  0  0  0  0  0  0  0  0  0  0  0
  152.9810  122.1460  138.1250 C   0  0  0  0  0  0  0  0  0  0  0  0
  154.1200  122.3090  138.8580 C   0  0  0  0  0  0  0  0  0  0  0  0
  150.5890  116.8430  146.5060 C   0  0  0  0  0  0  0  0  0  0  0  0
  149.4620  115.9520  146.0430 C   0  0  0  0  0  0  0  0  0  0  0  0
  148.6590  116.3190  144.9730 C   0  0  0  0  0  0  0  0  0  0  0  0
  147.6240  115.5010  144.5510 C   0  0  0  0  0  0  0  0  0  0  0  0
  147.3780  114.3090  145.1920 C   0  0  0  0  0  0  0  0  0  0  0  0
  148.1650  113.9320  146.2560 C   0  0  0  0  0  0  0  0  0  0  0  0
  149.2020  114.7470  146.6790 C   0  0  0  0  0  0  0  0  0  0  0  0
  153.5540  117.4410  140.7270 S   0  0  0  0  0  0  0  0  0  0  0  0
  1  2  2  0  0  0  0
  2  4  1  0  0  0  0
  4  5  1  0  0  0  0
  5  7  1  0  0  0  0
  7  9  2  0  0  0  0
  7 10  1  0  0  0  0
 10 11  1  0  0  0  0
  2 12  1  0  0  0  0
 10 13  1  0  0  0  0
  8 14  1  0  0  0  0
 13 14  1  0  0  0  0
 15 16  2  0  0  0  0
 16 17  1  0  0  0  0
 17 18  2  0  0  0  0
 18 19  1  0  0  0  0
 18 20  1  0  0  0  0
 15 21  1  0  0  0  0
 20 21  1  0  0  0  0
 21 22  2  0  0  0  0
 22 23  1  0  0  0  0
 23 24  2  0  0  0  0
 20 25  2  0  0  0  0
 24 25  1  0  0  0  0
  4 26  1  0  0  0  0
 26 27  1  0  0  0  0
 27 28  1  0  0  0  0
 28 29  2  0  0  0  0
 29 30  1  0  0  0  0
 30 31  2  0  0  0  0
 27 32  2  0  0  0  0
 31 32  1  0  0  0  0
  3 33  2  0  0  0  0
  6 33  2  0  0  0  0
 11 33  1  0  0  0  0
 15 33  1  0  0  0  0
M  END
$$$$
