7M94
  PyMOL3.1          3D                             0

 27 30  0  0  0  0  0  0  0  0999 V2000
   32.7049    2.4890   16.5865 N   0  0  0  0  0  0  0  0  0  0  0  0
   35.0588    1.9432   16.9531 C   0  0  0  0  0  0  0  0  0  0  0  0
   35.8779   -2.1754   19.9721 O   0  0  0  0  0  0  0  0  0  0  0  0
   34.0713    2.8173   16.2002 C   0  0  0  0  0  0  0  0  0  0  0  0
   35.8424   -1.6847   17.7437 N   0  0  0  0  0  0  0  0  0  0  0  0
   32.4302    5.1933   17.5186 O   0  0  0  0  0  0  0  0  0  0  0  0
   32.4270    1.1228   16.1480 C   0  0  0  0  0  0  0  0  0  0  0  0
   33.3280    0.1333   16.8854 C   0  0  0  0  0  0  0  0  0  0  0  0
   34.8215    0.4453   16.7836 C   0  0  0  0  0  0  0  0  0  0  0  0
   35.5790   -0.2520   17.8856 C   0  0  0  0  0  0  0  0  0  0  0  0
   35.9922   -2.3593   16.4539 C   0  0  0  0  0  0  0  0  0  0  0  0
   36.2977   -3.7683   16.8704 C   0  0  0  0  0  0  0  0  0  0  0  0
   36.5987   -4.8953   16.1158 C   0  0  0  0  0  0  0  0  0  0  0  0
   36.8540   -6.1005   16.7487 C   0  0  0  0  0  0  0  0  0  0  0  0
   36.8056   -6.1877   18.1295 C   0  0  0  0  0  0  0  0  0  0  0  0
   36.5058   -5.0694   18.8935 C   0  0  0  0  0  0  0  0  0  0  0  0
   36.2578   -3.8579   18.2517 C   0  0  0  0  0  0  0  0  0  0  0  0
   35.9719   -2.5104   18.8070 C   0  0  0  0  0  0  0  0  0  0  0  0
   31.7520    3.4521   16.0387 C   0  0  0  0  0  0  0  0  0  0  0  0
   31.6616    4.8455   16.6400 C   0  0  0  0  0  0  0  0  0  0  0  0
   30.6025    5.7670   16.1418 C   0  0  0  0  0  0  0  0  0  0  0  0
   30.4834    7.0403   16.6871 C   0  0  0  0  0  0  0  0  0  0  0  0
   29.4739    7.8934   16.2820 C   0  0  0  0  0  0  0  0  0  0  0  0
   28.5973    7.4541   15.3302 C   0  0  0  0  0  0  0  0  0  0  0  0
   28.6839    6.2166   14.7532 C   0  0  0  0  0  0  0  0  0  0  0  0
   29.6972    5.3701   15.1648 C   0  0  0  0  0  0  0  0  0  0  0  0
   27.5828    8.2762   14.9543 F   0  0  0  0  0  0  0  0  0  0  0  0
  1  4  1  0  0  0  0
  2  4  1  0  0  0  0
  1  7  1  0  0  0  0
  7  8  1  0  0  0  0
  2  9  1  0  0  0  0
  8  9  1  0  0  0  0
  5 10  1  0  0  0  0
  9 10  1  0  0  0  0
  5 11  1  0  0  0  0
 11 12  1  0  0  0  0
 12 13  1  0  0  0  0
 13 14  2  0  0  0  0
 14 15  1  0  0  0  0
 15 16  2  0  0  0  0
 12 17  2  0  0  0  0
 16 17  1  0  0  0  0
  3 18  2  0  0  0  0
  5 18  1  0  0  0  0
 17 18  1  0  0  0  0
  1 19  1  0  0  0  0
  6 20  2  0  0  0  0
 19 20  1  0  0  0  0
 20 21  1  0  0  0  0
 21 22  1  0  0  0  0
 22 23  2  0  0  0  0
 23 24  1  0  0  0  0
 24 25  2  0  0  0  0
 21 26  2  0  0  0  0
 25 26  1  0  0  0  0
 24 27  1  0  0  0  0
M  END
$$$$
