7M94
  PyMOL3.1          3D                             0

 27 30  0  0  0  0  0  0  0  0999 V2000
    1.5758    6.8357   32.9244 N   0  0  0  0  0  0  0  0  0  0  0  0
    0.6351    7.5509   30.7873 C   0  0  0  0  0  0  0  0  0  0  0  0
   -2.4040   11.6985   31.1906 O   0  0  0  0  0  0  0  0  0  0  0  0
    1.5873    6.5985   31.4879 C   0  0  0  0  0  0  0  0  0  0  0  0
   -0.2975   11.2129   30.4576 N   0  0  0  0  0  0  0  0  0  0  0  0
    0.5366    4.2327   33.4097 O   0  0  0  0  0  0  0  0  0  0  0  0
    2.1185    8.1697   33.1646 C   0  0  0  0  0  0  0  0  0  0  0  0
    1.2078    9.2331   32.5533 C   0  0  0  0  0  0  0  0  0  0  0  0
    0.8964    9.0275   31.0708 C   0  0  0  0  0  0  0  0  0  0  0  0
   -0.3604    9.7716   30.6924 C   0  0  0  0  0  0  0  0  0  0  0  0
    0.8788   11.9033   29.9255 C   0  0  0  0  0  0  0  0  0  0  0  0
    0.3985   13.3224   29.8307 C   0  0  0  0  0  0  0  0  0  0  0  0
    1.0218   14.4630   29.3444 C   0  0  0  0  0  0  0  0  0  0  0  0
    0.3451   15.6716   29.3453 C   0  0  0  0  0  0  0  0  0  0  0  0
   -0.9478   15.7467   29.8339 C   0  0  0  0  0  0  0  0  0  0  0  0
   -1.5791   14.6149   30.3273 C   0  0  0  0  0  0  0  0  0  0  0  0
   -0.8958   13.3991   30.3178 C   0  0  0  0  0  0  0  0  0  0  0  0
   -1.3364   12.0425   30.7187 C   0  0  0  0  0  0  0  0  0  0  0  0
    2.3160    5.7980   33.6393 C   0  0  0  0  0  0  0  0  0  0  0  0
    1.6519    4.4475   33.8493 C   0  0  0  0  0  0  0  0  0  0  0  0
    2.3908    3.3980   34.6061 C   0  0  0  0  0  0  0  0  0  0  0  0
    1.8026    2.1542   34.8064 C   0  0  0  0  0  0  0  0  0  0  0  0
    2.4487    1.1727   35.5354 C   0  0  0  0  0  0  0  0  0  0  0  0
    3.6827    1.4553   36.0521 C   0  0  0  0  0  0  0  0  0  0  0  0
    4.3036    2.6626   35.8778 C   0  0  0  0  0  0  0  0  0  0  0  0
    3.6490    3.6378   35.1463 C   0  0  0  0  0  0  0  0  0  0  0  0
    4.3239    0.4912   36.7664 F   0  0  0  0  0  0  0  0  0  0  0  0
  1  4  1  0  0  0  0
  2  4  1  0  0  0  0
  1  7  1  0  0  0  0
  7  8  1  0  0  0  0
  2  9  1  0  0  0  0
  8  9  1  0  0  0  0
  5 10  1  0  0  0  0
  9 10  1  0  0  0  0
  5 11  1  0  0  0  0
 11 12  1  0  0  0  0
 12 13  1  0  0  0  0
 13 14  2  0  0  0  0
 14 15  1  0  0  0  0
 15 16  2  0  0  0  0
 12 17  2  0  0  0  0
 16 17  1  0  0  0  0
  3 18  2  0  0  0  0
  5 18  1  0  0  0  0
 17 18  1  0  0  0  0
  1 19  1  0  0  0  0
  6 20  2  0  0  0  0
 19 20  1  0  0  0  0
 20 21  1  0  0  0  0
 21 22  1  0  0  0  0
 22 23  2  0  0  0  0
 23 24  1  0  0  0  0
 24 25  2  0  0  0  0
 21 26  2  0  0  0  0
 25 26  1  0  0  0  0
 24 27  1  0  0  0  0
M  END
$$$$
