7LEK
  PyMOL3.1          3D                             0

188212  0  0  0  0  0  0  0  0999 V2000
   13.7140  -20.2130   15.3260 C   0  0  0  0  0  0  0  0  0  0  0  0
   14.1140  -21.7530   15.3040 C   0  0  0  0  0  0  0  0  0  0  0  0
   15.1630  -21.9710   14.3170 O   0  0  0  0  0  0  0  0  0  0  0  0
   15.0520  -23.1660   13.5010 C   0  0  0  0  0  0  0  0  0  0  0  0
   14.1650  -23.1240   12.3550 C   0  0  0  0  0  0  0  0  0  0  0  0
   14.0310  -24.2400   11.5500 C   0  0  0  0  0  0  0  0  0  0  0  0
   14.7880  -25.4570   11.8380 C   0  0  0  0  0  0  0  0  0  0  0  0
   15.6420  -25.4870   12.9230 C   0  0  0  0  0  0  0  0  0  0  0  0
   16.4650  -26.7630   13.2650 C   0  0  0  0  0  0  0  0  0  0  0  0
   17.9380  -26.7940   12.9930 N   0  0  0  0  0  0  0  0  0  0  0  0
   18.6510  -25.6550   12.3980 C   0  0  0  0  0  0  0  0  0  0  0  0
   19.6970  -25.1650   13.3230 C   0  0  0  0  0  0  0  0  0  0  0  0
   20.7720  -26.1960   13.5760 C   0  0  0  0  0  0  0  0  0  0  0  0
   21.7540  -26.2160   14.4470 N   0  0  0  0  0  0  0  0  0  0  0  0
   22.9230  -26.3420   13.8160 C   0  0  0  0  0  0  0  0  0  0  0  0
   23.3850  -25.0130   13.1590 C   0  0  0  0  0  0  0  0  0  0  0  0
   23.4770  -23.9870   14.0930 N   0  0  0  0  0  0  0  0  0  0  0  0
   22.3390  -23.8160   14.7780 C   0  0  0  0  0  0  0  0  0  0  0  0
   21.7310  -25.1300   15.3360 C   0  0  0  0  0  0  0  0  0  0  0  0
   23.7600  -22.9350   13.5120 C   0  0  0  0  0  0  0  0  0  0  0  0
   20.1600  -27.5080   14.0660 C   0  0  0  0  0  0  0  0  0  0  0  0
   18.8410  -27.9430   13.3000 C   0  0  0  0  0  0  0  0  0  0  0  0
   15.9080  -27.7170   13.7740 O   0  0  0  0  0  0  0  0  0  0  0  0
   15.7740  -24.3180   13.7690 C   0  0  0  0  0  0  0  0  0  0  0  0
   13.4500  -21.8310   12.1670 N   0  0  0  0  0  0  0  0  0  0  0  0
   12.6610  -21.4610   10.9450 C   0  0  0  0  0  0  0  0  0  0  0  0
   12.2980  -20.1150   10.7180 N   0  0  0  0  0  0  0  0  0  0  0  0
   11.6070  -19.7790    9.6520 C   0  0  0  0  0  0  0  0  0  0  0  0
   11.2400  -20.7960    8.7590 C   0  0  0  0  0  0  0  0  0  0  0  0
   10.4530  -20.5090    7.5560 N   0  0  0  0  0  0  0  0  0  0  0  0
   10.5210  -21.0620    6.2840 C   0  0  0  0  0  0  0  0  0  0  0  0
   11.5090  -22.1480    5.9160 C   0  0  0  0  0  0  0  0  0  0  0  0
   11.8160  -23.2370    6.7280 C   0  0  0  0  0  0  0  0  0  0  0  0
   11.2400  -23.3490    8.0440 N   0  0  0  0  0  0  0  0  0  0  0  0
   11.6170  -22.1550    9.0560 C   0  0  0  0  0  0  0  0  0  0  0  0
   12.3400  -22.4070   10.1350 N   0  0  0  0  0  0  0  0  0  0  0  0
   11.2790  -24.6880    8.7190 C   0  0  0  0  0  0  0  0  0  0  0  0
   10.8470  -26.1920    8.2170 C   0  0  0  0  0  0  0  0  0  0  0  0
    9.9660  -26.6790    9.1150 C   0  0  0  0  0  0  0  0  0  0  0  0
    9.7570  -25.5170   10.3090 C   0  0  0  0  0  0  0  0  0  0  0  0
   10.1090  -24.3220    9.7220 C   0  0  0  0  0  0  0  0  0  0  0  0
   12.7850  -24.2060    6.2890 C   0  0  0  0  0  0  0  0  0  0  0  0
   13.4030  -24.0630    4.9490 C   0  0  0  0  0  0  0  0  0  0  0  0
   13.0560  -22.9590    4.1080 C   0  0  0  0  0  0  0  0  0  0  0  0
   12.1300  -22.0010    4.5500 C   0  0  0  0  0  0  0  0  0  0  0  0
    9.7930  -20.6780    5.4920 O   0  0  0  0  0  0  0  0  0  0  0  0
    9.4020  -19.4440    7.7530 C   0  0  0  0  0  0  0  0  0  0  0  0
   14.8680  -37.8980   47.8210 C   0  0  0  0  0  0  0  0  0  0  0  0
   15.0480  -39.0580   48.8990 C   0  0  0  0  0  0  0  0  0  0  0  0
   13.8290  -39.8480   49.0200 O   0  0  0  0  0  0  0  0  0  0  0  0
   13.8250  -41.1600   48.4000 C   0  0  0  0  0  0  0  0  0  0  0  0
   13.5570  -41.2650   46.9680 C   0  0  0  0  0  0  0  0  0  0  0  0
   13.5390  -42.4880   46.3370 C   0  0  0  0  0  0  0  0  0  0  0  0
   13.7930  -43.7030   47.0930 C   0  0  0  0  0  0  0  0  0  0  0  0
   14.0410  -43.6040   48.4500 C   0  0  0  0  0  0  0  0  0  0  0  0
   14.3090  -44.8980   49.2520 C   0  0  0  0  0  0  0  0  0  0  0  0
   15.7130  -45.3610   49.3590 N   0  0  0  0  0  0  0  0  0  0  0  0
   16.8300  -44.6200   48.7690 C   0  0  0  0  0  0  0  0  0  0  0  0
   17.7960  -44.2750   49.8360 C   0  0  0  0  0  0  0  0  0  0  0  0
   17.3210  -44.5610   51.2430 C   0  0  0  0  0  0  0  0  0  0  0  0
   18.0410  -44.8170   52.2870 N   0  0  0  0  0  0  0  0  0  0  0  0
   19.3490  -44.6150   52.1080 C   0  0  0  0  0  0  0  0  0  0  0  0
   20.0440  -43.6290   53.0820 C   0  0  0  0  0  0  0  0  0  0  0  0
   19.5380  -43.6990   54.3700 N   0  0  0  0  0  0  0  0  0  0  0  0
   18.2260  -43.4490   54.3750 C   0  0  0  0  0  0  0  0  0  0  0  0
   17.4230  -44.4110   53.4760 C   0  0  0  0  0  0  0  0  0  0  0  0
   19.8030  -44.7850   54.9000 C   0  0  0  0  0  0  0  0  0  0  0  0
   16.8090  -45.9890   51.4090 C   0  0  0  0  0  0  0  0  0  0  0  0
   16.1360  -46.5580   50.1160 C   0  0  0  0  0  0  0  0  0  0  0  0
   13.3950  -45.5190   49.7680 O   0  0  0  0  0  0  0  0  0  0  0  0
   14.0640  -42.3180   49.1250 C   0  0  0  0  0  0  0  0  0  0  0  0
   13.2970  -40.0080   46.2410 N   0  0  0  0  0  0  0  0  0  0  0  0
   13.3190  -39.8330   44.7480 C   0  0  0  0  0  0  0  0  0  0  0  0
   13.2000  -38.5090   44.2810 N   0  0  0  0  0  0  0  0  0  0  0  0
   13.2030  -38.2300   43.0100 C   0  0  0  0  0  0  0  0  0  0  0  0
   13.3210  -39.2980   42.1290 C   0  0  0  0  0  0  0  0  0  0  0  0
   13.3320  -39.0230   40.6960 N   0  0  0  0  0  0  0  0  0  0  0  0
   14.1150  -39.6010   39.7070 C   0  0  0  0  0  0  0  0  0  0  0  0
   15.1060  -40.6980   40.0220 C   0  0  0  0  0  0  0  0  0  0  0  0
   14.8390  -41.7730   40.8640 C   0  0  0  0  0  0  0  0  0  0  0  0
   13.5950  -41.8530   41.5740 N   0  0  0  0  0  0  0  0  0  0  0  0
   13.4160  -40.6500   42.6360 C   0  0  0  0  0  0  0  0  0  0  0  0
   13.4440  -40.8490   43.9520 N   0  0  0  0  0  0  0  0  0  0  0  0
   13.2100  -43.2370   42.0030 C   0  0  0  0  0  0  0  0  0  0  0  0
   12.9340  -44.5530   41.0750 C   0  0  0  0  0  0  0  0  0  0  0  0
   11.9780  -45.2490   41.7110 C   0  0  0  0  0  0  0  0  0  0  0  0
   11.0360  -44.1040   42.5030 C   0  0  0  0  0  0  0  0  0  0  0  0
   11.7540  -42.9170   42.5430 C   0  0  0  0  0  0  0  0  0  0  0  0
   15.8460  -42.7680   41.1220 C   0  0  0  0  0  0  0  0  0  0  0  0
   17.1450  -42.6620   40.4210 C   0  0  0  0  0  0  0  0  0  0  0  0
   17.4000  -41.5730   39.5280 C   0  0  0  0  0  0  0  0  0  0  0  0
   16.4240  -40.5900   39.3000 C   0  0  0  0  0  0  0  0  0  0  0  0
   13.9910  -39.2480   38.6250 O   0  0  0  0  0  0  0  0  0  0  0  0
   12.3750  -37.9410   40.2580 C   0  0  0  0  0  0  0  0  0  0  0  0
   21.8720   -1.7020   17.1980 C   0  0  0  0  0  0  0  0  0  0  0  0
   22.5370   -0.8060   16.0680 C   0  0  0  0  0  0  0  0  0  0  0  0
   21.8870   -1.1240   14.8120 O   0  0  0  0  0  0  0  0  0  0  0  0
   21.8040   -0.0360   13.8660 C   0  0  0  0  0  0  0  0  0  0  0  0
   22.4720   -0.1820   12.5790 C   0  0  0  0  0  0  0  0  0  0  0  0
   22.4130    0.8460   11.6620 C   0  0  0  0  0  0  0  0  0  0  0  0
   21.6770    2.0670   11.9540 C   0  0  0  0  0  0  0  0  0  0  0  0
   21.0360    2.1910   13.1690 C   0  0  0  0  0  0  0  0  0  0  0  0
   20.2720    3.4990   13.4910 C   0  0  0  0  0  0  0  0  0  0  0  0
   18.9540    3.8460   12.8920 N   0  0  0  0  0  0  0  0  0  0  0  0
   18.1790    3.0110   11.9710 C   0  0  0  0  0  0  0  0  0  0  0  0
   16.9560    2.5460   12.6650 C   0  0  0  0  0  0  0  0  0  0  0  0
   16.1510    3.6020   13.4010 C   0  0  0  0  0  0  0  0  0  0  0  0
   15.5220    3.4960   14.5300 N   0  0  0  0  0  0  0  0  0  0  0  0
   14.3070    4.0500   14.4390 C   0  0  0  0  0  0  0  0  0  0  0  0
   13.3480    3.7090   15.6110 C   0  0  0  0  0  0  0  0  0  0  0  0
   13.9420    2.8390   16.5090 N   0  0  0  0  0  0  0  0  0  0  0  0
   14.4050    1.7640   15.8710 C   0  0  0  0  0  0  0  0  0  0  0  0
   15.5840    2.1700   14.9670 C   0  0  0  0  0  0  0  0  0  0  0  0
   13.1630    2.5230   17.4100 C   0  0  0  0  0  0  0  0  0  0  0  0
   16.9840    4.6940   14.0580 C   0  0  0  0  0  0  0  0  0  0  0  0
   18.2540    5.0990   13.2390 C   0  0  0  0  0  0  0  0  0  0  0  0
   20.7860    4.2890   14.2560 O   0  0  0  0  0  0  0  0  0  0  0  0
   21.1030    1.1260   14.1500 C   0  0  0  0  0  0  0  0  0  0  0  0
   23.2090   -1.4520   12.3300 N   0  0  0  0  0  0  0  0  0  0  0  0
   23.9240   -1.7460   11.0380 C   0  0  0  0  0  0  0  0  0  0  0  0
   24.2490   -3.0810   10.7220 N   0  0  0  0  0  0  0  0  0  0  0  0
   24.8560   -3.3940    9.6080 C   0  0  0  0  0  0  0  0  0  0  0  0
   25.1930   -2.3600    8.7470 C   0  0  0  0  0  0  0  0  0  0  0  0
   25.9020   -2.6560    7.5040 N   0  0  0  0  0  0  0  0  0  0  0  0
   25.7870   -2.0840    6.2470 C   0  0  0  0  0  0  0  0  0  0  0  0
   24.8040   -0.9730    5.9650 C   0  0  0  0  0  0  0  0  0  0  0  0
   24.5620    0.1030    6.8120 C   0  0  0  0  0  0  0  0  0  0  0  0
   25.2260    0.1750    8.0840 N   0  0  0  0  0  0  0  0  0  0  0  0
   24.8700   -1.0040    9.1190 C   0  0  0  0  0  0  0  0  0  0  0  0
   24.2230   -0.7670   10.2490 N   0  0  0  0  0  0  0  0  0  0  0  0
   25.6270    1.5310    8.5800 C   0  0  0  0  0  0  0  0  0  0  0  0
   24.8580    2.6120    9.5420 C   0  0  0  0  0  0  0  0  0  0  0  0
   25.8170    3.0840   10.3710 C   0  0  0  0  0  0  0  0  0  0  0  0
   27.2190    2.1890   10.1060 C   0  0  0  0  0  0  0  0  0  0  0  0
   26.7920    1.0210    9.5110 C   0  0  0  0  0  0  0  0  0  0  0  0
   23.5870    1.1050    6.4590 C   0  0  0  0  0  0  0  0  0  0  0  0
   22.8900    0.9930    5.1560 C   0  0  0  0  0  0  0  0  0  0  0  0
   23.1660   -0.1060    4.2800 C   0  0  0  0  0  0  0  0  0  0  0  0
   24.0970   -1.0910    4.6400 C   0  0  0  0  0  0  0  0  0  0  0  0
   26.4570   -2.4760    5.4050 O   0  0  0  0  0  0  0  0  0  0  0  0
   26.9300   -3.7550    7.6390 C   0  0  0  0  0  0  0  0  0  0  0  0
   15.3120  -34.4850    6.6780 C   0  0  0  0  0  0  0  0  0  0  0  0
   15.4370  -33.0050    7.2380 C   0  0  0  0  0  0  0  0  0  0  0  0
   14.1500  -32.6300    7.7810 O   0  0  0  0  0  0  0  0  0  0  0  0
   14.1140  -31.3910    8.5190 C   0  0  0  0  0  0  0  0  0  0  0  0
   13.7800  -31.4420    9.9300 C   0  0  0  0  0  0  0  0  0  0  0  0
   13.7200  -30.2690   10.6660 C   0  0  0  0  0  0  0  0  0  0  0  0
   14.0010  -28.9800   10.0360 C   0  0  0  0  0  0  0  0  0  0  0  0
   14.3280  -28.9510    8.6890 C   0  0  0  0  0  0  0  0  0  0  0  0
   14.6270  -27.6240    7.9460 C   0  0  0  0  0  0  0  0  0  0  0  0
   15.9600  -27.4190    7.3050 N   0  0  0  0  0  0  0  0  0  0  0  0
   16.3250  -26.2090    6.5640 C   0  0  0  0  0  0  0  0  0  0  0  0
   16.6620  -26.6300    5.1870 C   0  0  0  0  0  0  0  0  0  0  0  0
   17.9960  -27.3410    5.1190 C   0  0  0  0  0  0  0  0  0  0  0  0
   18.4110  -28.3170    4.3580 N   0  0  0  0  0  0  0  0  0  0  0  0
   17.5160  -28.7340    3.4560 C   0  0  0  0  0  0  0  0  0  0  0  0
   17.6080  -27.9960    2.0920 C   0  0  0  0  0  0  0  0  0  0  0  0
   18.9130  -27.8770    1.6290 N   0  0  0  0  0  0  0  0  0  0  0  0
   19.7030  -27.2910    2.5320 C   0  0  0  0  0  0  0  0  0  0  0  0
   19.6960  -28.0690    3.8640 C   0  0  0  0  0  0  0  0  0  0  0  0
   18.9240  -27.2220    0.5830 C   0  0  0  0  0  0  0  0  0  0  0  0
   18.2340  -28.2260    6.3390 C   0  0  0  0  0  0  0  0  0  0  0  0
   17.0520  -28.4280    7.3620 C   0  0  0  0  0  0  0  0  0  0  0  0
   13.7620  -26.7760    7.8660 O   0  0  0  0  0  0  0  0  0  0  0  0
   14.3760  -30.1760    7.9190 C   0  0  0  0  0  0  0  0  0  0  0  0
   13.5110  -32.8060   10.4560 N   0  0  0  0  0  0  0  0  0  0  0  0
   13.5060  -33.1440   11.9160 C   0  0  0  0  0  0  0  0  0  0  0  0
   13.2900  -34.4690   12.3380 N   0  0  0  0  0  0  0  0  0  0  0  0
   13.2850  -34.7670   13.6130 C   0  0  0  0  0  0  0  0  0  0  0  0
   13.4920  -33.7380   14.5330 C   0  0  0  0  0  0  0  0  0  0  0  0
   13.4930  -34.0190   15.9710 N   0  0  0  0  0  0  0  0  0  0  0  0
   14.2530  -33.4600   16.9950 C   0  0  0  0  0  0  0  0  0  0  0  0
   15.2770  -32.3710   16.7710 C   0  0  0  0  0  0  0  0  0  0  0  0
   15.1270  -31.2910   15.9060 C   0  0  0  0  0  0  0  0  0  0  0  0
   13.9610  -31.1870   15.0770 N   0  0  0  0  0  0  0  0  0  0  0  0
   13.6730  -32.3930   14.0470 C   0  0  0  0  0  0  0  0  0  0  0  0
   13.7080  -32.1860   12.7450 N   0  0  0  0  0  0  0  0  0  0  0  0
   12.9350  -30.1410   15.4000 C   0  0  0  0  0  0  0  0  0  0  0  0
   13.1280  -28.5420   15.6820 C   0  0  0  0  0  0  0  0  0  0  0  0
   11.9810  -27.9730   15.2520 C   0  0  0  0  0  0  0  0  0  0  0  0
   11.1590  -29.1170   14.3270 C   0  0  0  0  0  0  0  0  0  0  0  0
   12.0730  -30.1210   14.0740 C   0  0  0  0  0  0  0  0  0  0  0  0
   16.1760  -30.3170   15.7600 C   0  0  0  0  0  0  0  0  0  0  0  0
   17.3940  -30.4600   16.5910 C   0  0  0  0  0  0  0  0  0  0  0  0
   17.5310  -31.5520   17.5000 C   0  0  0  0  0  0  0  0  0  0  0  0
   16.5120  -32.5110   17.6170 C   0  0  0  0  0  0  0  0  0  0  0  0
   14.0890  -33.8440   18.0610 O   0  0  0  0  0  0  0  0  0  0  0  0
   12.5270  -35.0990   16.3990 C   0  0  0  0  0  0  0  0  0  0  0  0
  1  2  1  0  0  0  0
  2  3  1  0  0  0  0
  3  4  1  0  0  0  0
  4  5  1  0  0  0  0
  5  6  2  0  0  0  0
  6  7  1  0  0  0  0
  7  8  2  0  0  0  0
  8  9  1  0  0  0  0
  9 10  1  0  0  0  0
 10 11  1  0  0  0  0
 11 12  1  0  0  0  0
 12 13  1  0  0  0  0
 13 14  1  0  0  0  0
 14 15  1  0  0  0  0
 15 16  1  0  0  0  0
 16 17  1  0  0  0  0
 17 18  1  0  0  0  0
 14 19  1  0  0  0  0
 18 19  1  0  0  0  0
 17 20  1  0  0  0  0
 13 21  1  0  0  0  0
 10 22  1  0  0  0  0
 21 22  1  0  0  0  0
  9 23  2  0  0  0  0
  4 24  2  0  0  0  0
  8 24  1  0  0  0  0
  5 25  1  0  0  0  0
 25 26  1  0  0  0  0
 26 27  1  0  0  0  0
 27 28  2  0  0  0  0
 28 29  1  0  0  0  0
 29 30  1  0  0  0  0
 30 31  1  0  0  0  0
 31 32  1  0  0  0  0
 32 33  1  0  0  0  0
 33 34  1  0  0  0  0
 29 35  2  0  0  0  0
 34 35  1  0  0  0  0
 26 36  2  0  0  0  0
 35 36  1  0  0  0  0
 34 37  1  0  0  0  0
 37 38  1  0  0  0  0
 38 39  1  0  0  0  0
 39 40  1  0  0  0  0
 37 41  1  0  0  0  0
 40 41  1  0  0  0  0
 33 42  2  0  0  0  0
 42 43  1  0  0  0  0
 43 44  2  0  0  0  0
 32 45  2  0  0  0  0
 44 45  1  0  0  0  0
 31 46  2  0  0  0  0
 30 47  1  0  0  0  0
 48 49  1  0  0  0  0
 49 50  1  0  0  0  0
 50 51  1  0  0  0  0
 51 52  1  0  0  0  0
 52 53  2  0  0  0  0
 53 54  1  0  0  0  0
 54 55  2  0  0  0  0
 55 56  1  0  0  0  0
 56 57  1  0  0  0  0
 57 58  1  0  0  0  0
 58 59  1  0  0  0  0
 59 60  1  0  0  0  0
 60 61  1  0  0  0  0
 61 62  1  0  0  0  0
 62 63  1  0  0  0  0
 63 64  1  0  0  0  0
 64 65  1  0  0  0  0
 61 66  1  0  0  0  0
 65 66  1  0  0  0  0
 64 67  1  0  0  0  0
 60 68  1  0  0  0  0
 57 69  1  0  0  0  0
 68 69  1  0  0  0  0
 56 70  2  0  0  0  0
 51 71  2  0  0  0  0
 55 71  1  0  0  0  0
 52 72  1  0  0  0  0
 72 73  1  0  0  0  0
 73 74  1  0  0  0  0
 74 75  2  0  0  0  0
 75 76  1  0  0  0  0
 76 77  1  0  0  0  0
 77 78  1  0  0  0  0
 78 79  1  0  0  0  0
 79 80  1  0  0  0  0
 80 81  1  0  0  0  0
 76 82  2  0  0  0  0
 81 82  1  0  0  0  0
 73 83  2  0  0  0  0
 82 83  1  0  0  0  0
 81 84  1  0  0  0  0
 84 85  1  0  0  0  0
 85 86  1  0  0  0  0
 86 87  1  0  0  0  0
 84 88  1  0  0  0  0
 87 88  1  0  0  0  0
 80 89  2  0  0  0  0
 89 90  1  0  0  0  0
 90 91  2  0  0  0  0
 79 92  2  0  0  0  0
 91 92  1  0  0  0  0
 78 93  2  0  0  0  0
 77 94  1  0  0  0  0
 95 96  1  0  0  0  0
 96 97  1  0  0  0  0
 97 98  1  0  0  0  0
 98 99  1  0  0  0  0
 99100  2  0  0  0  0
100101  1  0  0  0  0
101102  2  0  0  0  0
102103  1  0  0  0  0
103104  1  0  0  0  0
104105  1  0  0  0  0
105106  1  0  0  0  0
106107  1  0  0  0  0
107108  1  0  0  0  0
108109  1  0  0  0  0
109110  1  0  0  0  0
110111  1  0  0  0  0
111112  1  0  0  0  0
108113  1  0  0  0  0
112113  1  0  0  0  0
111114  1  0  0  0  0
107115  1  0  0  0  0
104116  1  0  0  0  0
115116  1  0  0  0  0
103117  2  0  0  0  0
 98118  2  0  0  0  0
102118  1  0  0  0  0
 99119  1  0  0  0  0
119120  1  0  0  0  0
120121  1  0  0  0  0
121122  2  0  0  0  0
122123  1  0  0  0  0
123124  1  0  0  0  0
124125  1  0  0  0  0
125126  1  0  0  0  0
126127  1  0  0  0  0
127128  1  0  0  0  0
123129  2  0  0  0  0
128129  1  0  0  0  0
120130  2  0  0  0  0
129130  1  0  0  0  0
128131  1  0  0  0  0
131132  1  0  0  0  0
132133  1  0  0  0  0
133134  1  0  0  0  0
131135  1  0  0  0  0
134135  1  0  0  0  0
127136  2  0  0  0  0
136137  1  0  0  0  0
137138  2  0  0  0  0
126139  2  0  0  0  0
138139  1  0  0  0  0
125140  2  0  0  0  0
124141  1  0  0  0  0
142143  1  0  0  0  0
143144  1  0  0  0  0
144145  1  0  0  0  0
145146  1  0  0  0  0
146147  2  0  0  0  0
147148  1  0  0  0  0
148149  2  0  0  0  0
149150  1  0  0  0  0
150151  1  0  0  0  0
151152  1  0  0  0  0
152153  1  0  0  0  0
153154  1  0  0  0  0
154155  1  0  0  0  0
155156  1  0  0  0  0
156157  1  0  0  0  0
157158  1  0  0  0  0
158159  1  0  0  0  0
155160  1  0  0  0  0
159160  1  0  0  0  0
158161  1  0  0  0  0
154162  1  0  0  0  0
151163  1  0  0  0  0
162163  1  0  0  0  0
150164  2  0  0  0  0
145165  2  0  0  0  0
149165  1  0  0  0  0
146166  1  0  0  0  0
166167  1  0  0  0  0
167168  1  0  0  0  0
168169  2  0  0  0  0
169170  1  0  0  0  0
170171  1  0  0  0  0
171172  1  0  0  0  0
172173  1  0  0  0  0
173174  1  0  0  0  0
174175  1  0  0  0  0
170176  2  0  0  0  0
175176  1  0  0  0  0
167177  2  0  0  0  0
176177  1  0  0  0  0
175178  1  0  0  0  0
178179  1  0  0  0  0
179180  1  0  0  0  0
180181  1  0  0  0  0
178182  1  0  0  0  0
181182  1  0  0  0  0
174183  2  0  0  0  0
183184  1  0  0  0  0
184185  2  0  0  0  0
173186  2  0  0  0  0
185186  1  0  0  0  0
172187  2  0  0  0  0
171188  1  0  0  0  0
M  END
$$$$
