8VPN
  PyMOL3.1          3D                             0

 41 42  0  0  0  0  0  0  0  0999 V2000
  164.5580  175.7460  185.4910 C   0  0  0  0  0  0  0  0  0  0  0  0
  164.4490  177.0100  184.9810 C   0  0  0  0  0  0  0  0  0  0  0  0
  165.0410  169.4560  184.6560 C   0  0  0  0  0  0  0  0  0  0  0  0
  163.5970  175.3400  186.3930 C   0  0  0  0  0  0  0  0  0  0  0  0
  163.4380  177.8710  185.3140 C   0  0  0  0  0  0  0  0  0  0  0  0
  165.5800  177.2610  184.0360 C   0  0  0  0  0  0  0  0  0  0  0  0
  162.4830  177.4440  186.2080 C   0  0  0  0  0  0  0  0  0  0  0  0
  162.5650  176.1780  186.7440 C   0  0  0  0  0  0  0  0  0  0  0  0
  166.2500  175.9020  183.9200 C   0  0  0  0  0  0  0  0  0  0  0  0
  166.0160  168.7050  185.2340 C   0  0  0  0  0  0  0  0  0  0  0  0
  166.0850  172.8180  185.7520 C   0  0  0  0  0  0  0  0  0  0  0  0
  166.0100  171.3770  185.5540 C   0  0  0  0  0  0  0  0  0  0  0  0
  166.9990  170.6360  186.1250 C   0  0  0  0  0  0  0  0  0  0  0  0
  165.0360  170.8040  184.8150 C   0  0  0  0  0  0  0  0  0  0  0  0
  167.0240  169.2770  185.9780 C   0  0  0  0  0  0  0  0  0  0  0  0
  165.9350  175.2450  182.6050 C   0  0  0  0  0  0  0  0  0  0  0  0
  165.5820  173.7030  184.7700 N   0  0  0  0  0  0  0  0  0  0  0  0
  169.5070  169.2800  187.4650 N   0  0  0  0  0  0  0  0  0  0  0  0
  165.7230  175.0630  185.0220 N   0  0  0  0  0  0  0  0  0  0  0  0
  166.6360  173.1810  186.7440 O   0  0  0  0  0  0  0  0  0  0  0  0
  168.8770  167.4040  185.9800 O   0  0  0  0  0  0  0  0  0  0  0  0
  167.6690  167.6440  187.7410 O   0  0  0  0  0  0  0  0  0  0  0  0
  168.2920  168.3720  186.7670 S   0  0  0  0  0  0  0  0  0  0  0  0
  165.9230  166.9530  184.9510 Cl  0  0  0  0  0  0  0  0  0  0  0  0
  165.1400  173.3440  183.9350 H   0  0  0  0  0  0  0  0  0  0  0  0
  164.2680  168.9790  184.0650 H   0  0  0  0  0  0  0  0  0  0  0  0
  163.6570  174.3520  186.8310 H   0  0  0  0  0  0  0  0  0  0  0  0
  163.3820  178.8570  184.8720 H   0  0  0  0  0  0  0  0  0  0  0  0
  161.6630  178.0970  186.4790 H   0  0  0  0  0  0  0  0  0  0  0  0
  161.8150  175.8420  187.4490 H   0  0  0  0  0  0  0  0  0  0  0  0
  167.3380  176.0260  184.0100 H   0  0  0  0  0  0  0  0  0  0  0  0
  167.7640  171.1260  186.7150 H   0  0  0  0  0  0  0  0  0  0  0  0
  164.2680  171.4110  184.3520 H   0  0  0  0  0  0  0  0  0  0  0  0
  169.7150  168.9110  188.4080 H   0  0  0  0  0  0  0  0  0  0  0  0
  165.2110  177.5990  183.0660 H   0  0  0  0  0  0  0  0  0  0  0  0
  166.0220  175.9570  181.8250 H   0  0  0  0  0  0  0  0  0  0  0  0
  170.3570  169.2270  186.8800 H   0  0  0  0  0  0  0  0  0  0  0  0
  166.2700  178.0030  184.4420 H   0  0  0  0  0  0  0  0  0  0  0  0
  166.6140  174.4510  182.4360 H   0  0  0  0  0  0  0  0  0  0  0  0
  169.2020  170.2640  187.5400 H   0  0  0  0  0  0  0  0  0  0  0  0
  164.9460  174.8660  182.6280 H   0  0  0  0  0  0  0  0  0  0  0  0
  1  2  1  0  0  0  0
  1  4  2  0  0  0  0
  2  5  2  0  0  0  0
  2  6  1  0  0  0  0
  5  7  1  0  0  0  0
  4  8  1  0  0  0  0
  7  8  2  0  0  0  0
  6  9  1  0  0  0  0
  3 10  2  0  0  0  0
 11 12  1  0  0  0  0
 12 13  1  0  0  0  0
  3 14  1  0  0  0  0
 12 14  2  0  0  0  0
 10 15  1  0  0  0  0
 13 15  2  0  0  0  0
  9 16  1  0  0  0  0
 11 17  1  0  0  0  0
  1 19  1  0  0  0  0
  9 19  1  0  0  0  0
 17 19  1  0  0  0  0
 11 20  2  0  0  0  0
 15 23  1  0  0  0  0
 18 23  1  0  0  0  0
 21 23  2  0  0  0  0
 22 23  2  0  0  0  0
 10 24  1  0  0  0  0
 17 25  1  0  0  0  0
  3 26  1  0  0  0  0
  4 27  1  0  0  0  0
  5 28  1  0  0  0  0
  7 29  1  0  0  0  0
  8 30  1  0  0  0  0
  9 31  1  0  0  0  0
 13 32  1  0  0  0  0
 14 33  1  0  0  0  0
  6 35  1  0  0  0  0
 16 36  1  0  0  0  0
 18 37  1  0  0  0  0
  6 38  1  0  0  0  0
 16 39  1  0  0  0  0
 18 40  1  0  0  0  0
 16 41  1  0  0  0  0
M  END
$$$$
