7WDB
  PyMOL3.1          3D                             0

 15 16  0  0  0  0  0  0  0  0999 V2000
  165.1950  177.9180  155.4030 C   0  0  0  0  0  0  0  0  0  0  0  0
  162.4400  180.4340  157.3560 N   0  0  0  0  0  0  0  0  0  0  0  0
  166.3660  175.9710  156.5910 O   0  0  0  0  0  0  0  0  0  0  0  0
  162.9420  179.0250  159.2520 S   0  0  0  0  0  0  0  0  0  0  0  0
  164.1990  179.0630  155.5450 C   0  0  0  0  0  0  0  0  0  0  0  0
  161.1920  181.0380  159.5210 N   0  0  0  0  0  0  0  0  0  0  0  0
  163.4920  179.3460  156.9100 C   0  0  0  0  0  0  0  0  0  0  0  0
  163.7730  178.5180  158.0670 C   0  0  0  0  0  0  0  0  0  0  0  0
  164.7780  177.3550  157.9380 C   0  0  0  0  0  0  0  0  0  0  0  0
  165.4740  177.0540  156.6200 C   0  0  0  0  0  0  0  0  0  0  0  0
  165.7430  174.6860  156.6030 C   0  0  0  0  0  0  0  0  0  0  0  0
  162.1220  180.2350  158.7430 C   0  0  0  0  0  0  0  0  0  0  0  0
  166.7320  173.7330  156.6700 F   0  0  0  0  0  0  0  0  0  0  0  0
  164.8920  174.4980  157.6820 F   0  0  0  0  0  0  0  0  0  0  0  0
  165.0240  174.5090  155.4380 F   0  0  0  0  0  0  0  0  0  0  0  0
  1  5  4  0  0  0  0
  5  7  4  0  0  0  0
  6 12  1  0  0  0  0
  2  7  4  0  0  0  0
  4  8  4  0  0  0  0
  7  8  4  0  0  0  0
  8  9  4  0  0  0  0
  1 10  4  0  0  0  0
  3 10  1  0  0  0  0
  9 10  4  0  0  0  0
  3 11  1  0  0  0  0
 11 13  1  0  0  0  0
 11 14  1  0  0  0  0
 11 15  1  0  0  0  0
  2 12  4  0  0  0  0
  4 12  4  0  0  0  0
M  END
$$$$
