7Y4G
  PyMOL3.1          3D                             0

 28 30  0  0  0  0  0  0  0  0999 V2000
    9.5360    5.8700  -46.1770 C   0  0  0  0  0  0  0  0  0  0  0  0
    8.3010    5.4180  -45.4820 C   0  0  0  0  0  0  0  0  0  0  0  0
    6.9380    5.5930  -46.0180 C   0  0  0  0  0  0  0  0  0  0  0  0
    6.8210    6.2060  -47.3750 C   0  0  0  0  0  0  0  0  0  0  0  0
    8.0990    6.6380  -48.0710 C   0  0  0  0  0  0  0  0  0  0  0  0
    9.4420    6.4860  -47.4990 C   0  0  0  0  0  0  0  0  0  0  0  0
    5.7010    5.2120  -45.2350 C   0  0  0  0  0  0  0  0  0  0  0  0
    5.3070    3.9030  -45.8330 C   0  0  0  0  0  0  0  0  0  0  0  0
    4.1810    3.2530  -45.0570 C   0  0  0  0  0  0  0  0  0  0  0  0
    2.8690    3.9200  -45.4730 C   0  0  0  0  0  0  0  0  0  0  0  0
    1.6120    3.3340  -44.9870 N   0  0  0  0  0  0  0  0  0  0  0  0
    6.5330    3.1110  -45.8270 N   0  0  0  0  0  0  0  0  0  0  0  0
    2.9350    4.8620  -46.1960 O   0  0  0  0  0  0  0  0  0  0  0  0
    1.6330    2.1870  -44.1060 C   0  0  0  0  0  0  0  0  0  0  0  0
    0.8900    2.4130  -42.8220 C   0  0  0  0  0  0  0  0  0  0  0  0
   -0.4340    3.1050  -42.9170 N   0  0  0  0  0  0  0  0  0  0  0  0
   -0.7670    3.7790  -44.0860 C   0  0  0  0  0  0  0  0  0  0  0  0
    0.2670    3.7700  -45.2700 C   0  0  0  0  0  0  0  0  0  0  0  0
   -1.4850    3.2230  -42.0500 C   0  0  0  0  0  0  0  0  0  0  0  0
   -2.5010    3.9330  -42.6340 N   0  0  0  0  0  0  0  0  0  0  0  0
   -2.0200    4.2730  -43.9140 N   0  0  0  0  0  0  0  0  0  0  0  0
   -1.5030    2.6710  -40.6380 C   0  0  0  0  0  0  0  0  0  0  0  0
    8.5350    4.9090  -44.2990 F   0  0  0  0  0  0  0  0  0  0  0  0
   -2.7390    2.9630  -40.1310 F   0  0  0  0  0  0  0  0  0  0  0  0
   -0.5960    3.3540  -39.8920 F   0  0  0  0  0  0  0  0  0  0  0  0
   -1.1420    1.3520  -40.6110 F   0  0  0  0  0  0  0  0  0  0  0  0
   10.5540    6.8650  -48.2360 F   0  0  0  0  0  0  0  0  0  0  0  0
    8.0690    7.1780  -49.2860 F   0  0  0  0  0  0  0  0  0  0  0  0
  1  2  2  0  0  0  0
  2  3  1  0  0  0  0
  3  4  2  0  0  0  0
  4  5  1  0  0  0  0
  1  6  1  0  0  0  0
  5  6  2  0  0  0  0
  3  7  1  0  0  0  0
  7  8  1  0  0  0  0
  8  9  1  0  0  0  0
  9 10  1  0  0  0  0
 10 11  1  0  0  0  0
  8 12  1  0  0  0  0
 10 13  2  0  0  0  0
 11 14  1  0  0  0  0
 14 15  1  0  0  0  0
 15 16  1  0  0  0  0
 16 17  1  0  0  0  0
 11 18  1  0  0  0  0
 17 18  1  0  0  0  0
 16 19  1  0  0  0  0
 19 20  2  0  0  0  0
 17 21  2  0  0  0  0
 20 21  1  0  0  0  0
 19 22  1  0  0  0  0
  2 23  1  0  0  0  0
 22 24  1  0  0  0  0
 22 25  1  0  0  0  0
 22 26  1  0  0  0  0
  6 27  1  0  0  0  0
  5 28  1  0  0  0  0
M  END
$$$$
