7Y4G
  PyMOL3.1          3D                             0

 28 30  0  0  0  0  0  0  0  0999 V2000
   63.7870    5.8250   -0.8860 C   0  0  0  0  0  0  0  0  0  0  0  0
   62.5240    5.4610   -0.1900 C   0  0  0  0  0  0  0  0  0  0  0  0
   61.1600    5.6750   -0.7680 C   0  0  0  0  0  0  0  0  0  0  0  0
   60.9730    6.3030   -2.0890 C   0  0  0  0  0  0  0  0  0  0  0  0
   62.2490    6.6810   -2.8380 C   0  0  0  0  0  0  0  0  0  0  0  0
   63.5910    6.3970   -2.2410 C   0  0  0  0  0  0  0  0  0  0  0  0
   59.9100    5.2800   -0.0060 C   0  0  0  0  0  0  0  0  0  0  0  0
   59.5170    3.8890   -0.5230 C   0  0  0  0  0  0  0  0  0  0  0  0
   58.4110    3.3400    0.4040 C   0  0  0  0  0  0  0  0  0  0  0  0
   57.0440    3.9520   -0.0010 C   0  0  0  0  0  0  0  0  0  0  0  0
   55.8000    3.3840    0.5320 N   0  0  0  0  0  0  0  0  0  0  0  0
   60.6950    3.0280   -0.5310 N   0  0  0  0  0  0  0  0  0  0  0  0
   57.0520    4.8100   -0.8330 O   0  0  0  0  0  0  0  0  0  0  0  0
   55.8090    2.2810    1.4710 C   0  0  0  0  0  0  0  0  0  0  0  0
   55.0190    2.5320    2.7120 C   0  0  0  0  0  0  0  0  0  0  0  0
   53.6810    3.2160    2.5670 N   0  0  0  0  0  0  0  0  0  0  0  0
   53.3880    3.8700    1.3690 C   0  0  0  0  0  0  0  0  0  0  0  0
   54.4540    3.8040    0.2020 C   0  0  0  0  0  0  0  0  0  0  0  0
   52.6500    3.4270    3.4590 C   0  0  0  0  0  0  0  0  0  0  0  0
   51.6470    4.1290    2.8530 N   0  0  0  0  0  0  0  0  0  0  0  0
   52.1360    4.3860    1.5290 N   0  0  0  0  0  0  0  0  0  0  0  0
   52.6020    2.8570    4.8810 C   0  0  0  0  0  0  0  0  0  0  0  0
   62.7230    4.9210    1.0040 F   0  0  0  0  0  0  0  0  0  0  0  0
   51.4870    3.3380    5.5100 F   0  0  0  0  0  0  0  0  0  0  0  0
   53.7440    3.1020    5.5690 F   0  0  0  0  0  0  0  0  0  0  0  0
   52.5310    1.4950    4.8050 F   0  0  0  0  0  0  0  0  0  0  0  0
   64.6310    6.8410   -2.9630 F   0  0  0  0  0  0  0  0  0  0  0  0
   62.2550    7.2730   -4.0760 F   0  0  0  0  0  0  0  0  0  0  0  0
  1  2  2  0  0  0  0
  2  3  1  0  0  0  0
  3  4  2  0  0  0  0
  4  5  1  0  0  0  0
  1  6  1  0  0  0  0
  5  6  2  0  0  0  0
  3  7  1  0  0  0  0
  7  8  1  0  0  0  0
  8  9  1  0  0  0  0
  9 10  1  0  0  0  0
 10 11  1  0  0  0  0
  8 12  1  0  0  0  0
 10 13  2  0  0  0  0
 11 14  1  0  0  0  0
 14 15  1  0  0  0  0
 15 16  1  0  0  0  0
 16 17  1  0  0  0  0
 11 18  1  0  0  0  0
 17 18  1  0  0  0  0
 16 19  1  0  0  0  0
 19 20  2  0  0  0  0
 17 21  2  0  0  0  0
 20 21  1  0  0  0  0
 19 22  1  0  0  0  0
  2 23  1  0  0  0  0
 22 24  1  0  0  0  0
 22 25  1  0  0  0  0
 22 26  1  0  0  0  0
  6 27  1  0  0  0  0
  5 28  1  0  0  0  0
M  END
$$$$
