8BHB
  PyMOL3.1          3D                             0

 38 40  0  0  0  0  0  0  0  0999 V2000
  147.4580  184.9810  198.3110 N   0  0  0  0  0  0  0  0  0  0  0  0
  146.8680  181.5390  200.7890 C   0  0  0  0  0  0  0  0  0  0  0  0
  146.9880  180.3530  200.9670 O   0  0  0  0  0  0  0  0  0  0  0  0
  144.5270  181.2720  200.5250 C   0  0  0  0  0  0  0  0  0  0  0  0
  151.3890  189.3450  199.4010 N   0  0  0  0  0  0  0  0  0  0  0  0
  145.6990  182.1380  200.5590 O   0  0  0  0  0  0  0  0  0  0  0  0
  144.5050  180.5730  199.2280 C   0  0  0  0  0  0  0  0  0  0  0  0
  152.6130  189.2890  199.0540 N   0  0  0  0  0  0  0  0  0  0  0  0
  148.8550  185.8620  196.7950 O   0  0  0  0  0  0  0  0  0  0  0  0
  148.0000  182.4940  200.8010 C   0  0  0  0  0  0  0  0  0  0  0  0
  153.6950  189.4410  198.7270 N   0  0  0  0  0  0  0  0  0  0  0  0
  148.0290  183.7840  200.3330 C   0  0  0  0  0  0  0  0  0  0  0  0
  149.3100  184.2290  200.5650 N   0  0  0  0  0  0  0  0  0  0  0  0
  147.0600  184.6990  199.6910 C   0  0  0  0  0  0  0  0  0  0  0  0
  149.2320  182.1320  201.3190 N   0  0  0  0  0  0  0  0  0  0  0  0
  146.5760  184.4690  197.2740 C   0  0  0  0  0  0  0  0  0  0  0  0
  148.5670  185.6600  197.9600 C   0  0  0  0  0  0  0  0  0  0  0  0
  149.4580  186.1800  199.0450 C   0  0  0  0  0  0  0  0  0  0  0  0
  149.9870  187.4430  198.7900 C   0  0  0  0  0  0  0  0  0  0  0  0
  150.8510  188.0530  199.6900 C   0  0  0  0  0  0  0  0  0  0  0  0
  151.1890  187.3930  200.8640 C   0  0  0  0  0  0  0  0  0  0  0  0
  150.6730  186.1380  201.1390 C   0  0  0  0  0  0  0  0  0  0  0  0
  149.8100  185.5240  200.2370 C   0  0  0  0  0  0  0  0  0  0  0  0
  149.9830  183.1950  201.1580 C   0  0  0  0  0  0  0  0  0  0  0  0
  149.7170  187.9570  197.8690 H   0  0  0  0  0  0  0  0  0  0  0  0
  144.4770  180.5590  201.3450 H   0  0  0  0  0  0  0  0  0  0  0  0
  143.6800  181.9440  200.6490 H   0  0  0  0  0  0  0  0  0  0  0  0
  146.9870  185.6300  200.2500 H   0  0  0  0  0  0  0  0  0  0  0  0
  146.0610  184.2720  199.7330 H   0  0  0  0  0  0  0  0  0  0  0  0
  145.8280  185.2000  196.9740 H   0  0  0  0  0  0  0  0  0  0  0  0
  146.0420  183.5740  197.5870 H   0  0  0  0  0  0  0  0  0  0  0  0
  147.1370  184.1840  196.3860 H   0  0  0  0  0  0  0  0  0  0  0  0
  145.3970  179.9650  199.0920 H   0  0  0  0  0  0  0  0  0  0  0  0
  143.6490  179.9080  199.1300 H   0  0  0  0  0  0  0  0  0  0  0  0
  144.4600  181.2550  198.3810 H   0  0  0  0  0  0  0  0  0  0  0  0
  151.8640  187.8480  201.5860 H   0  0  0  0  0  0  0  0  0  0  0  0
  150.9510  185.6440  202.0680 H   0  0  0  0  0  0  0  0  0  0  0  0
  151.0270  183.2480  201.4630 H   0  0  0  0  0  0  0  0  0  0  0  0
  2  3  2  0  0  0  0
  2  6  1  0  0  0  0
  4  6  1  0  0  0  0
  4  7  1  0  0  0  0
  5  8  2  0  0  0  0
  2 10  1  0  0  0  0
  8 11  2  0  0  0  0
 10 12  2  0  0  0  0
 12 13  1  0  0  0  0
  1 14  1  0  0  0  0
 12 14  1  0  0  0  0
 10 15  1  0  0  0  0
  1 16  1  0  0  0  0
  1 17  1  0  0  0  0
  9 17  2  0  0  0  0
 17 18  1  0  0  0  0
 18 19  1  0  0  0  0
  5 20  1  0  0  0  0
 19 20  2  0  0  0  0
 20 21  1  0  0  0  0
 21 22  2  0  0  0  0
 13 23  1  0  0  0  0
 18 23  2  0  0  0  0
 22 23  1  0  0  0  0
 13 24  1  0  0  0  0
 15 24  2  0  0  0  0
 19 25  1  0  0  0  0
  4 26  1  0  0  0  0
  4 27  1  0  0  0  0
 14 28  1  0  0  0  0
 14 29  1  0  0  0  0
 16 30  1  0  0  0  0
 16 31  1  0  0  0  0
 16 32  1  0  0  0  0
  7 33  1  0  0  0  0
  7 34  1  0  0  0  0
  7 35  1  0  0  0  0
 21 36  1  0  0  0  0
 22 37  1  0  0  0  0
 24 38  1  0  0  0  0
M  END
$$$$
