8BHB
  PyMOL3.1          3D                             0

 38 40  0  0  0  0  0  0  0  0999 V2000
  178.2820  144.0530  198.3160 N   0  0  0  0  0  0  0  0  0  0  0  0
  180.7810  146.4920  200.7930 C   0  0  0  0  0  0  0  0  0  0  0  0
  181.3800  147.5230  200.9710 O   0  0  0  0  0  0  0  0  0  0  0  0
  182.8330  145.3330  200.5300 C   0  0  0  0  0  0  0  0  0  0  0  0
  172.5380  142.8300  199.4040 N   0  0  0  0  0  0  0  0  0  0  0  0
  181.3750  145.3210  200.5640 O   0  0  0  0  0  0  0  0  0  0  0  0
  183.2610  145.8860  199.2330 C   0  0  0  0  0  0  0  0  0  0  0  0
  171.5790  143.5940  199.0570 N   0  0  0  0  0  0  0  0  0  0  0  0
  176.6350  144.1600  196.7990 O   0  0  0  0  0  0  0  0  0  0  0  0
  179.3040  146.3840  200.8050 C   0  0  0  0  0  0  0  0  0  0  0  0
  170.6150  144.1060  198.7290 N   0  0  0  0  0  0  0  0  0  0  0  0
  178.5230  145.3570  200.3370 C   0  0  0  0  0  0  0  0  0  0  0  0
  177.2240  145.7490  200.5680 N   0  0  0  0  0  0  0  0  0  0  0  0
  178.7690  144.0470  199.6960 C   0  0  0  0  0  0  0  0  0  0  0  0
  178.5190  147.4010  201.3230 N   0  0  0  0  0  0  0  0  0  0  0  0
  179.2970  143.9490  197.2790 C   0  0  0  0  0  0  0  0  0  0  0  0
  176.9850  144.1540  197.9640 C   0  0  0  0  0  0  0  0  0  0  0  0
  175.9590  144.2580  199.0480 C   0  0  0  0  0  0  0  0  0  0  0  0
  174.7890  143.5450  198.7930 C   0  0  0  0  0  0  0  0  0  0  0  0
  173.7320  143.5600  199.6930 C   0  0  0  0  0  0  0  0  0  0  0  0
  173.8460  144.2920  200.8670 C   0  0  0  0  0  0  0  0  0  0  0  0
  175.0000  145.0050  201.1420 C   0  0  0  0  0  0  0  0  0  0  0  0
  176.0590  144.9950  200.2410 C   0  0  0  0  0  0  0  0  0  0  0  0
  177.2870  146.9820  201.1620 C   0  0  0  0  0  0  0  0  0  0  0  0
  174.7060  142.9710  197.8730 H   0  0  0  0  0  0  0  0  0  0  0  0
  183.2920  145.8810  201.3510 H   0  0  0  0  0  0  0  0  0  0  0  0
  183.1230  144.2920  200.6540 H   0  0  0  0  0  0  0  0  0  0  0  0
  178.2820  143.2510  200.2550 H   0  0  0  0  0  0  0  0  0  0  0  0
  179.8290  143.8060  199.7380 H   0  0  0  0  0  0  0  0  0  0  0  0
  179.4730  142.9180  196.9790 H   0  0  0  0  0  0  0  0  0  0  0  0
  180.2550  144.3600  197.5910 H   0  0  0  0  0  0  0  0  0  0  0  0
  179.0110  144.5090  196.3910 H   0  0  0  0  0  0  0  0  0  0  0  0
  182.8960  146.9020  199.0970 H   0  0  0  0  0  0  0  0  0  0  0  0
  184.3440  145.9210  199.1360 H   0  0  0  0  0  0  0  0  0  0  0  0
  182.8980  145.3070  198.3860 H   0  0  0  0  0  0  0  0  0  0  0  0
  173.0320  144.3200  201.5890 H   0  0  0  0  0  0  0  0  0  0  0  0
  175.0650  145.5680  202.0710 H   0  0  0  0  0  0  0  0  0  0  0  0
  176.4110  147.5520  201.4660 H   0  0  0  0  0  0  0  0  0  0  0  0
  2  3  2  0  0  0  0
  2  6  1  0  0  0  0
  4  6  1  0  0  0  0
  4  7  1  0  0  0  0
  5  8  2  0  0  0  0
  2 10  1  0  0  0  0
  8 11  2  0  0  0  0
 10 12  2  0  0  0  0
 12 13  1  0  0  0  0
  1 14  1  0  0  0  0
 12 14  1  0  0  0  0
 10 15  1  0  0  0  0
  1 16  1  0  0  0  0
  1 17  1  0  0  0  0
  9 17  2  0  0  0  0
 17 18  1  0  0  0  0
 18 19  1  0  0  0  0
  5 20  1  0  0  0  0
 19 20  2  0  0  0  0
 20 21  1  0  0  0  0
 21 22  2  0  0  0  0
 13 23  1  0  0  0  0
 18 23  2  0  0  0  0
 22 23  1  0  0  0  0
 13 24  1  0  0  0  0
 15 24  2  0  0  0  0
 19 25  1  0  0  0  0
  4 26  1  0  0  0  0
  4 27  1  0  0  0  0
 14 28  1  0  0  0  0
 14 29  1  0  0  0  0
 16 30  1  0  0  0  0
 16 31  1  0  0  0  0
 16 32  1  0  0  0  0
  7 33  1  0  0  0  0
  7 34  1  0  0  0  0
  7 35  1  0  0  0  0
 21 36  1  0  0  0  0
 22 37  1  0  0  0  0
 24 38  1  0  0  0  0
M  END
$$$$
