8BHB
  PyMOL3.1          3D                             0

 38 40  0  0  0  0  0  0  0  0999 V2000
  196.4550  169.9820  198.3110 N   0  0  0  0  0  0  0  0  0  0  0  0
  194.9080  173.1120  200.7890 C   0  0  0  0  0  0  0  0  0  0  0  0
  194.1140  174.0010  200.9670 O   0  0  0  0  0  0  0  0  0  0  0  0
  196.6450  174.7060  200.5250 C   0  0  0  0  0  0  0  0  0  0  0  0
  195.8430  164.1410  199.4000 N   0  0  0  0  0  0  0  0  0  0  0  0
  196.2060  173.3160  200.5590 O   0  0  0  0  0  0  0  0  0  0  0  0
  196.2520  175.2840  199.2280 C   0  0  0  0  0  0  0  0  0  0  0  0
  194.8200  163.4660  199.0530 N   0  0  0  0  0  0  0  0  0  0  0  0
  195.8440  168.4480  196.7950 O   0  0  0  0  0  0  0  0  0  0  0  0
  194.5550  171.6750  200.8010 C   0  0  0  0  0  0  0  0  0  0  0  0
  194.0350  162.7070  198.7260 N   0  0  0  0  0  0  0  0  0  0  0  0
  195.2900  170.6140  200.3330 C   0  0  0  0  0  0  0  0  0  0  0  0
  194.5160  169.5000  200.5640 N   0  0  0  0  0  0  0  0  0  0  0  0
  196.6120  170.4440  199.6910 C   0  0  0  0  0  0  0  0  0  0  0  0
  193.3450  171.2430  201.3190 N   0  0  0  0  0  0  0  0  0  0  0  0
  196.8680  170.9140  197.2740 C   0  0  0  0  0  0  0  0  0  0  0  0
  195.9580  168.7800  197.9600 C   0  0  0  0  0  0  0  0  0  0  0  0
  195.5430  167.8360  199.0440 C   0  0  0  0  0  0  0  0  0  0  0  0
  195.8590  166.5030  198.7890 C   0  0  0  0  0  0  0  0  0  0  0  0
  195.5180  165.5020  199.6890 C   0  0  0  0  0  0  0  0  0  0  0  0
  194.8570  165.8370  200.8630 C   0  0  0  0  0  0  0  0  0  0  0  0
  194.5370  167.1550  201.1380 C   0  0  0  0  0  0  0  0  0  0  0  0
  194.8730  168.1590  200.2370 C   0  0  0  0  0  0  0  0  0  0  0  0
  193.3630  169.9410  201.1580 C   0  0  0  0  0  0  0  0  0  0  0  0
  196.3790  166.2460  197.8680 H   0  0  0  0  0  0  0  0  0  0  0  0
  196.2660  175.3110  201.3450 H   0  0  0  0  0  0  0  0  0  0  0  0
  197.7250  174.6590  200.6490 H   0  0  0  0  0  0  0  0  0  0  0  0
  197.2190  169.7340  200.2500 H   0  0  0  0  0  0  0  0  0  0  0  0
  197.1690  171.3760  199.7330 H   0  0  0  0  0  0  0  0  0  0  0  0
  197.9030  170.7630  196.9740 H   0  0  0  0  0  0  0  0  0  0  0  0
  196.7730  171.9530  197.5860 H   0  0  0  0  0  0  0  0  0  0  0  0
  196.2470  170.8160  196.3860 H   0  0  0  0  0  0  0  0  0  0  0  0
  195.1730  175.2510  199.0920 H   0  0  0  0  0  0  0  0  0  0  0  0
  196.5530  176.3250  199.1300 H   0  0  0  0  0  0  0  0  0  0  0  0
  196.6890  174.7590  198.3810 H   0  0  0  0  0  0  0  0  0  0  0  0
  194.5790  165.0720  201.5850 H   0  0  0  0  0  0  0  0  0  0  0  0
  194.0210  167.3910  202.0670 H   0  0  0  0  0  0  0  0  0  0  0  0
  192.5500  169.2840  201.4620 H   0  0  0  0  0  0  0  0  0  0  0  0
  2  3  2  0  0  0  0
  2  6  1  0  0  0  0
  4  6  1  0  0  0  0
  4  7  1  0  0  0  0
  5  8  2  0  0  0  0
  2 10  1  0  0  0  0
  8 11  2  0  0  0  0
 10 12  2  0  0  0  0
 12 13  1  0  0  0  0
  1 14  1  0  0  0  0
 12 14  1  0  0  0  0
 10 15  1  0  0  0  0
  1 16  1  0  0  0  0
  1 17  1  0  0  0  0
  9 17  2  0  0  0  0
 17 18  1  0  0  0  0
 18 19  1  0  0  0  0
  5 20  1  0  0  0  0
 19 20  2  0  0  0  0
 20 21  1  0  0  0  0
 21 22  2  0  0  0  0
 13 23  1  0  0  0  0
 18 23  2  0  0  0  0
 22 23  1  0  0  0  0
 13 24  1  0  0  0  0
 15 24  2  0  0  0  0
 19 25  1  0  0  0  0
  4 26  1  0  0  0  0
  4 27  1  0  0  0  0
 14 28  1  0  0  0  0
 14 29  1  0  0  0  0
 16 30  1  0  0  0  0
 16 31  1  0  0  0  0
 16 32  1  0  0  0  0
  7 33  1  0  0  0  0
  7 34  1  0  0  0  0
  7 35  1  0  0  0  0
 21 36  1  0  0  0  0
 22 37  1  0  0  0  0
 24 38  1  0  0  0  0
M  END
$$$$
