6WFG
  PyMOL3.1          3D                             0

216222  0  0  0  0  0  0  0  0999 V2000
    9.7500   -6.4770   17.9210 C   0  0  0  0  0  0  0  0  0  0  0  0
   10.7630   -7.2210   18.6610 N   0  0  0  0  0  0  0  0  0  0  0  0
    9.5560   -7.9310   12.5160 O   0  0  0  0  0  0  0  0  0  0  0  0
   11.2650   -8.3390   17.8840 C   0  0  0  0  0  0  0  0  0  0  0  0
   12.1580   -6.7750   12.2580 N   0  0  0  0  0  0  0  0  0  0  0  0
   12.3220   -8.5840   10.9010 O   0  0  0  0  0  0  0  0  0  0  0  0
   10.3000   -5.9590   16.6100 C   0  0  0  0  0  0  0  0  0  0  0  0
   10.6020   -9.6370   13.6330 N   0  0  0  0  0  0  0  0  0  0  0  0
   12.8820   -8.0100    6.6000 O   0  0  0  0  0  0  0  0  0  0  0  0
   11.8730   -7.8580   16.5820 C   0  0  0  0  0  0  0  0  0  0  0  0
   13.0980   -7.2340    8.7590 N   0  0  0  0  0  0  0  0  0  0  0  0
   10.9590   -5.6230   20.2890 O   0  0  0  0  0  0  0  0  0  0  0  0
   10.8420   -7.0980   15.7820 C   0  0  0  0  0  0  0  0  0  0  0  0
   12.8750   -7.4460   21.5580 N   0  0  0  0  0  0  0  0  0  0  0  0
   11.4600   -6.5020   14.5320 C   0  0  0  0  0  0  0  0  0  0  0  0
   14.1240   -7.8540   21.8250 N   0  0  0  0  0  0  0  0  0  0  0  0
   11.7620   -7.5170   13.4420 C   0  0  0  0  0  0  0  0  0  0  0  0
   10.5270   -8.3510   13.1330 C   0  0  0  0  0  0  0  0  0  0  0  0
    9.4640  -10.5030   13.4790 C   0  0  0  0  0  0  0  0  0  0  0  0
   12.3660   -7.3800   11.0420 C   0  0  0  0  0  0  0  0  0  0  0  0
   12.6410   -6.4320    9.8920 C   0  0  0  0  0  0  0  0  0  0  0  0
   12.4140   -7.4230    7.5670 C   0  0  0  0  0  0  0  0  0  0  0  0
   11.0260   -6.8500    7.4740 C   0  0  0  0  0  0  0  0  0  0  0  0
   10.4310   -6.4780    8.8110 C   0  0  0  0  0  0  0  0  0  0  0  0
   11.4060   -5.6290    9.5760 C   0  0  0  0  0  0  0  0  0  0  0  0
   11.3990   -6.6260   19.7440 C   0  0  0  0  0  0  0  0  0  0  0  0
   12.6380   -7.1400   20.2450 C   0  0  0  0  0  0  0  0  0  0  0  0
   14.7230   -7.8380   20.6290 C   0  0  0  0  0  0  0  0  0  0  0  0
   13.8430   -7.3730   19.6140 C   0  0  0  0  0  0  0  0  0  0  0  0
   16.1450   -8.2010   20.4770 C   0  0  0  0  0  0  0  0  0  0  0  0
   16.9310   -6.9230   20.6120 C   0  0  0  0  0  0  0  0  0  0  0  0
   16.4260   -8.7960   19.1110 C   0  0  0  0  0  0  0  0  0  0  0  0
   16.6250   -9.1760   21.5340 C   0  0  0  0  0  0  0  0  0  0  0  0
   11.9150   -7.3510   22.6430 C   0  0  0  0  0  0  0  0  0  0  0  0
    9.3760   -5.6410   18.5140 H   0  0  0  0  0  0  0  0  0  0  0  0
    8.9180   -7.1580   17.7320 H   0  0  0  0  0  0  0  0  0  0  0  0
   10.4080   -8.9820   17.6690 H   0  0  0  0  0  0  0  0  0  0  0  0
   11.9790   -8.9250   18.4620 H   0  0  0  0  0  0  0  0  0  0  0  0
    9.5110   -5.4470   16.0600 H   0  0  0  0  0  0  0  0  0  0  0  0
   11.0930   -5.2340   16.8000 H   0  0  0  0  0  0  0  0  0  0  0  0
   12.7180   -7.2010   16.7850 H   0  0  0  0  0  0  0  0  0  0  0  0
   12.2410   -8.7110   16.0120 H   0  0  0  0  0  0  0  0  0  0  0  0
   10.0160   -7.7650   15.5390 H   0  0  0  0  0  0  0  0  0  0  0  0
   12.3860   -5.9880   14.8080 H   0  0  0  0  0  0  0  0  0  0  0  0
   10.7830   -5.7470   14.1210 H   0  0  0  0  0  0  0  0  0  0  0  0
   12.6050   -8.1590   13.7160 H   0  0  0  0  0  0  0  0  0  0  0  0
   12.4600   -5.8120   12.3730 H   0  0  0  0  0  0  0  0  0  0  0  0
   11.3210   -9.8940   14.3030 H   0  0  0  0  0  0  0  0  0  0  0  0
    8.6730  -10.1650   14.1540 H   0  0  0  0  0  0  0  0  0  0  0  0
    9.7630  -11.5240   13.7250 H   0  0  0  0  0  0  0  0  0  0  0  0
    9.1120  -10.4620   12.4470 H   0  0  0  0  0  0  0  0  0  0  0  0
   13.4640   -5.7750   10.1830 H   0  0  0  0  0  0  0  0  0  0  0  0
   14.0330   -7.6130    8.8120 H   0  0  0  0  0  0  0  0  0  0  0  0
   11.0760   -5.9660    6.8310 H   0  0  0  0  0  0  0  0  0  0  0  0
   10.3940   -7.5920    6.9770 H   0  0  0  0  0  0  0  0  0  0  0  0
    9.4990   -5.9290    8.6570 H   0  0  0  0  0  0  0  0  0  0  0  0
   10.1940   -7.3840    9.3740 H   0  0  0  0  0  0  0  0  0  0  0  0
   11.6830   -4.7720    8.9590 H   0  0  0  0  0  0  0  0  0  0  0  0
   10.9540   -5.2400   10.4870 H   0  0  0  0  0  0  0  0  0  0  0  0
   14.0600   -7.2380   18.5690 H   0  0  0  0  0  0  0  0  0  0  0  0
   17.9830   -7.1030   20.3850 H   0  0  0  0  0  0  0  0  0  0  0  0
   16.5520   -6.1640   19.9220 H   0  0  0  0  0  0  0  0  0  0  0  0
   16.8590   -6.5320   21.6300 H   0  0  0  0  0  0  0  0  0  0  0  0
   17.4300   -9.2220   19.0590 H   0  0  0  0  0  0  0  0  0  0  0  0
   15.7050   -9.5860   18.8850 H   0  0  0  0  0  0  0  0  0  0  0  0
   16.3450   -8.0230   18.3450 H   0  0  0  0  0  0  0  0  0  0  0  0
   17.6470   -9.5000   21.3250 H   0  0  0  0  0  0  0  0  0  0  0  0
   16.6170   -8.7080   22.5210 H   0  0  0  0  0  0  0  0  0  0  0  0
   15.9760  -10.0550   21.5610 H   0  0  0  0  0  0  0  0  0  0  0  0
   11.0240   -7.9170   22.3570 H   0  0  0  0  0  0  0  0  0  0  0  0
   12.3660   -7.7700   23.5480 H   0  0  0  0  0  0  0  0  0  0  0  0
   11.6660   -6.2980   22.7910 H   0  0  0  0  0  0  0  0  0  0  0  0
   23.2300   30.5030   25.6670 C   0  0  0  0  0  0  0  0  0  0  0  0
   22.1800   30.1710   26.5980 N   0  0  0  0  0  0  0  0  0  0  0  0
   22.9100   35.8850   23.8380 O   0  0  0  0  0  0  0  0  0  0  0  0
   21.5820   31.3750   27.1580 C   0  0  0  0  0  0  0  0  0  0  0  0
   20.4590   35.2060   22.7030 N   0  0  0  0  0  0  0  0  0  0  0  0
   19.7220   37.2340   23.4990 O   0  0  0  0  0  0  0  0  0  0  0  0
   22.6210   31.2930   24.5350 C   0  0  0  0  0  0  0  0  0  0  0  0
   21.8370   35.7730   25.8770 N   0  0  0  0  0  0  0  0  0  0  0  0
   19.1840   40.4490   20.4300 O   0  0  0  0  0  0  0  0  0  0  0  0
   20.9890   32.2740   26.0840 C   0  0  0  0  0  0  0  0  0  0  0  0
   19.2260   38.2290   21.0470 N   0  0  0  0  0  0  0  0  0  0  0  0
   22.2990   27.9250   26.1620 O   0  0  0  0  0  0  0  0  0  0  0  0
   22.0140   32.5920   25.0110 C   0  0  0  0  0  0  0  0  0  0  0  0
   20.3220   27.7300   28.3690 N   0  0  0  0  0  0  0  0  0  0  0  0
   21.3720   33.2250   23.7840 C   0  0  0  0  0  0  0  0  0  0  0  0
   19.0670   27.6350   28.8310 N   0  0  0  0  0  0  0  0  0  0  0  0
   20.8670   34.6420   23.9850 C   0  0  0  0  0  0  0  0  0  0  0  0
   21.9800   35.5020   24.5340 C   0  0  0  0  0  0  0  0  0  0  0  0
   22.8960   36.4900   26.5470 C   0  0  0  0  0  0  0  0  0  0  0  0
   20.0060   36.5110   22.5530 C   0  0  0  0  0  0  0  0  0  0  0  0
   19.8480   36.9190   21.0890 C   0  0  0  0  0  0  0  0  0  0  0  0
   19.8130   39.4060   20.5960 C   0  0  0  0  0  0  0  0  0  0  0  0
   21.2890   39.3710   20.2870 C   0  0  0  0  0  0  0  0  0  0  0  0
   21.9800   38.0940   20.6960 C   0  0  0  0  0  0  0  0  0  0  0  0
   21.1580   36.8750   20.3520 C   0  0  0  0  0  0  0  0  0  0  0  0
   21.7150   28.8670   26.6720 C   0  0  0  0  0  0  0  0  0  0  0  0
   20.4910   28.6160   27.3480 C   0  0  0  0  0  0  0  0  0  0  0  0
   18.3900   28.5060   28.0780 C   0  0  0  0  0  0  0  0  0  0  0  0
   19.2360   29.1300   27.1260 C   0  0  0  0  0  0  0  0  0  0  0  0
   16.9400   28.7340   28.2510 C   0  0  0  0  0  0  0  0  0  0  0  0
   16.1860   27.8940   27.2480 C   0  0  0  0  0  0  0  0  0  0  0  0
   16.6150   30.1900   27.9870 C   0  0  0  0  0  0  0  0  0  0  0  0
   16.4510   28.4030   29.6470 C   0  0  0  0  0  0  0  0  0  0  0  0
   21.3790   26.9500   28.9850 C   0  0  0  0  0  0  0  0  0  0  0  0
   23.7140   29.6010   25.2830 H   0  0  0  0  0  0  0  0  0  0  0  0
   23.9790   31.0960   26.1990 H   0  0  0  0  0  0  0  0  0  0  0  0
   22.3860   31.9150   27.6660 H   0  0  0  0  0  0  0  0  0  0  0  0
   20.8370   31.1220   27.9130 H   0  0  0  0  0  0  0  0  0  0  0  0
   23.3800   31.4750   23.7730 H   0  0  0  0  0  0  0  0  0  0  0  0
   21.8230   30.7030   24.0860 H   0  0  0  0  0  0  0  0  0  0  0  0
   20.1310   31.7760   25.6270 H   0  0  0  0  0  0  0  0  0  0  0  0
   20.6220   33.1910   26.5420 H   0  0  0  0  0  0  0  0  0  0  0  0
   22.8040   33.2200   25.4240 H   0  0  0  0  0  0  0  0  0  0  0  0
   20.5330   32.5990   23.4670 H   0  0  0  0  0  0  0  0  0  0  0  0
   22.0920   33.2360   22.9610 H   0  0  0  0  0  0  0  0  0  0  0  0
   19.9990   34.6610   24.6490 H   0  0  0  0  0  0  0  0  0  0  0  0
   20.3380   34.5690   21.9210 H   0  0  0  0  0  0  0  0  0  0  0  0
   21.1480   35.2860   26.4360 H   0  0  0  0  0  0  0  0  0  0  0  0
   23.7740   35.8410   26.6110 H   0  0  0  0  0  0  0  0  0  0  0  0
   22.5560   36.7700   27.5470 H   0  0  0  0  0  0  0  0  0  0  0  0
   23.1470   37.3870   25.9750 H   0  0  0  0  0  0  0  0  0  0  0  0
   19.1480   36.2250   20.6170 H   0  0  0  0  0  0  0  0  0  0  0  0
   18.2310   38.2610   21.2310 H   0  0  0  0  0  0  0  0  0  0  0  0
   21.4090   39.5280   19.2120 H   0  0  0  0  0  0  0  0  0  0  0  0
   21.7550   40.2170   20.7960 H   0  0  0  0  0  0  0  0  0  0  0  0
   22.9450   38.0330   20.1860 H   0  0  0  0  0  0  0  0  0  0  0  0
   22.1770   38.1200   21.7720 H   0  0  0  0  0  0  0  0  0  0  0  0
   20.9560   36.8640   19.2790 H   0  0  0  0  0  0  0  0  0  0  0  0
   21.7000   35.9610   20.5840 H   0  0  0  0  0  0  0  0  0  0  0  0
   18.9720   29.8630   26.3830 H   0  0  0  0  0  0  0  0  0  0  0  0
   15.1480   28.2260   27.1900 H   0  0  0  0  0  0  0  0  0  0  0  0
   16.6340   27.9860   26.2560 H   0  0  0  0  0  0  0  0  0  0  0  0
   16.2090   26.8420   27.5410 H   0  0  0  0  0  0  0  0  0  0  0  0
   15.5940   30.4290   28.2940 H   0  0  0  0  0  0  0  0  0  0  0  0
   17.3040   30.8440   28.5290 H   0  0  0  0  0  0  0  0  0  0  0  0
   16.7080   30.3980   26.9220 H   0  0  0  0  0  0  0  0  0  0  0  0
   15.3870   28.6270   29.7440 H   0  0  0  0  0  0  0  0  0  0  0  0
   16.5940   27.3410   29.8630 H   0  0  0  0  0  0  0  0  0  0  0  0
   16.9980   28.9930   30.3880 H   0  0  0  0  0  0  0  0  0  0  0  0
   22.1780   27.6350   29.2810 H   0  0  0  0  0  0  0  0  0  0  0  0
   20.9680   26.4450   29.8640 H   0  0  0  0  0  0  0  0  0  0  0  0
   21.7430   26.2260   28.2520 H   0  0  0  0  0  0  0  0  0  0  0  0
    4.6670   74.3870   18.1320 C   0  0  0  0  0  0  0  0  0  0  0  0
    3.5490   75.2960   17.9850 N   0  0  0  0  0  0  0  0  0  0  0  0
    5.1320   70.5630   13.8860 O   0  0  0  0  0  0  0  0  0  0  0  0
    3.0460   75.2520   16.6240 C   0  0  0  0  0  0  0  0  0  0  0  0
    2.6220   69.5720   14.7790 N   0  0  0  0  0  0  0  0  0  0  0  0
    2.3070   69.3640   12.5310 O   0  0  0  0  0  0  0  0  0  0  0  0
    4.2360   72.9690   17.8000 C   0  0  0  0  0  0  0  0  0  0  0  0
    3.9430   72.3270   13.0440 N   0  0  0  0  0  0  0  0  0  0  0  0
    2.0430   65.4010   10.7630 O   0  0  0  0  0  0  0  0  0  0  0  0
    2.5720   73.8510   16.2780 C   0  0  0  0  0  0  0  0  0  0  0  0
    1.7810   66.7130   12.6320 N   0  0  0  0  0  0  0  0  0  0  0  0
    3.5950   76.0550   20.1610 O   0  0  0  0  0  0  0  0  0  0  0  0
    3.7080   72.8570   16.3920 C   0  0  0  0  0  0  0  0  0  0  0  0
    1.2960   77.7260   19.5010 N   0  0  0  0  0  0  0  0  0  0  0  0
    3.2220   71.4260   16.2070 C   0  0  0  0  0  0  0  0  0  0  0  0
    0.0140   78.0470   19.2880 N   0  0  0  0  0  0  0  0  0  0  0  0
    2.9250   71.0010   14.7770 C   0  0  0  0  0  0  0  0  0  0  0  0
    4.1180   71.2460   13.8800 C   0  0  0  0  0  0  0  0  0  0  0  0
    4.9230   72.5660   12.0040 C   0  0  0  0  0  0  0  0  0  0  0  0
    2.4010   68.8410   13.6260 C   0  0  0  0  0  0  0  0  0  0  0  0
    2.2690   67.3350   13.8570 C   0  0  0  0  0  0  0  0  0  0  0  0
    2.5170   65.9050   11.7720 C   0  0  0  0  0  0  0  0  0  0  0  0
    3.9550   65.6320   12.1200 C   0  0  0  0  0  0  0  0  0  0  0  0
    4.5190   66.5710   13.1550 C   0  0  0  0  0  0  0  0  0  0  0  0
    3.5710   66.7180   14.3130 C   0  0  0  0  0  0  0  0  0  0  0  0
    3.0000   75.9520   19.0950 C   0  0  0  0  0  0  0  0  0  0  0  0
    1.6850   76.5200   18.9850 C   0  0  0  0  0  0  0  0  0  0  0  0
   -0.4630   77.0070   18.6020 C   0  0  0  0  0  0  0  0  0  0  0  0
    0.5390   76.0230   18.4040 C   0  0  0  0  0  0  0  0  0  0  0  0
   -1.8700   76.9550   18.1520 C   0  0  0  0  0  0  0  0  0  0  0  0
   -2.6990   76.2740   19.2120 C   0  0  0  0  0  0  0  0  0  0  0  0
   -1.9670   76.1730   16.8590 C   0  0  0  0  0  0  0  0  0  0  0  0
   -2.4520   78.3280   17.8900 C   0  0  0  0  0  0  0  0  0  0  0  0
    2.1270   78.6580   20.2380 C   0  0  0  0  0  0  0  0  0  0  0  0
    5.0730   74.4380   19.1430 H   0  0  0  0  0  0  0  0  0  0  0  0
    5.4510   74.7160   17.4460 H   0  0  0  0  0  0  0  0  0  0  0  0
    3.8770   75.5240   15.9680 H   0  0  0  0  0  0  0  0  0  0  0  0
    2.2590   75.9890   16.4700 H   0  0  0  0  0  0  0  0  0  0  0  0
    5.0720   72.2900   17.9620 H   0  0  0  0  0  0  0  0  0  0  0  0
    3.4300   72.6650   18.4630 H   0  0  0  0  0  0  0  0  0  0  0  0
    1.7850   73.5580   16.9700 H   0  0  0  0  0  0  0  0  0  0  0  0
    2.1570   73.8350   15.2670 H   0  0  0  0  0  0  0  0  0  0  0  0
    4.5010   73.1130   15.6870 H   0  0  0  0  0  0  0  0  0  0  0  0
    2.3160   71.2870   16.8050 H   0  0  0  0  0  0  0  0  0  0  0  0
    3.9660   70.7380   16.6120 H   0  0  0  0  0  0  0  0  0  0  0  0
    2.0450   71.5220   14.3910 H   0  0  0  0  0  0  0  0  0  0  0  0
    2.4010   69.1320   15.6680 H   0  0  0  0  0  0  0  0  0  0  0  0
    3.3360   73.0950   13.3260 H   0  0  0  0  0  0  0  0  0  0  0  0
    5.6520   73.2920   12.3720 H   0  0  0  0  0  0  0  0  0  0  0  0
    4.4150   72.9630   11.1240 H   0  0  0  0  0  0  0  0  0  0  0  0
    5.4400   71.6400   11.7390 H   0  0  0  0  0  0  0  0  0  0  0  0
    1.4990   67.1770   14.6190 H   0  0  0  0  0  0  0  0  0  0  0  0
    0.7810   66.7310   12.4850 H   0  0  0  0  0  0  0  0  0  0  0  0
    4.0150   64.6040   12.4890 H   0  0  0  0  0  0  0  0  0  0  0  0
    4.5440   65.6920   11.2010 H   0  0  0  0  0  0  0  0  0  0  0  0
    5.4730   66.1800   13.5170 H   0  0  0  0  0  0  0  0  0  0  0  0
    4.7120   67.5430   12.6940 H   0  0  0  0  0  0  0  0  0  0  0  0
    3.3720   65.7300   14.7340 H   0  0  0  0  0  0  0  0  0  0  0  0
    4.0170   67.3210   15.0990 H   0  0  0  0  0  0  0  0  0  0  0  0
    0.4440   75.0870   17.8840 H   0  0  0  0  0  0  0  0  0  0  0  0
   -3.6840   76.0130   18.8240 H   0  0  0  0  0  0  0  0  0  0  0  0
   -2.2090   75.3600   19.5560 H   0  0  0  0  0  0  0  0  0  0  0  0
   -2.8280   76.9380   20.0690 H   0  0  0  0  0  0  0  0  0  0  0  0
   -2.9320   76.3290   16.3730 H   0  0  0  0  0  0  0  0  0  0  0  0
   -1.1830   76.4860   16.1630 H   0  0  0  0  0  0  0  0  0  0  0  0
   -1.8500   75.1060   17.0550 H   0  0  0  0  0  0  0  0  0  0  0  0
   -3.4750   78.2470   17.5130 H   0  0  0  0  0  0  0  0  0  0  0  0
   -2.4800   78.9220   18.8070 H   0  0  0  0  0  0  0  0  0  0  0  0
   -1.8510   78.8590   17.1470 H   0  0  0  0  0  0  0  0  0  0  0  0
    3.0450   78.8190   19.6670 H   0  0  0  0  0  0  0  0  0  0  0  0
    1.5810   79.5980   20.3600 H   0  0  0  0  0  0  0  0  0  0  0  0
    2.3490   78.2160   21.2130 H   0  0  0  0  0  0  0  0  0  0  0  0
  1  2  1  0  0  0  0
  2  4  1  0  0  0  0
  1  7  1  0  0  0  0
  4 10  1  0  0  0  0
  7 13  1  0  0  0  0
 10 13  1  0  0  0  0
 13 15  1  0  0  0  0
 14 16  1  0  0  0  0
  5 17  1  0  0  0  0
 15 17  1  0  0  0  0
  3 18  2  0  0  0  0
  8 18  1  0  0  0  0
 17 18  1  0  0  0  0
  8 19  1  0  0  0  0
  5 20  1  0  0  0  0
  6 20  2  0  0  0  0
 11 21  1  0  0  0  0
 20 21  1  0  0  0  0
  9 22  2  0  0  0  0
 11 22  1  0  0  0  0
 22 23  1  0  0  0  0
 23 24  1  0  0  0  0
 21 25  1  0  0  0  0
 24 25  1  0  0  0  0
  2 26  1  0  0  0  0
 12 26  2  0  0  0  0
 14 27  1  0  0  0  0
 26 27  1  0  0  0  0
 16 28  2  0  0  0  0
 27 29  2  0  0  0  0
 28 29  1  0  0  0  0
 28 30  1  0  0  0  0
 30 31  1  0  0  0  0
 30 32  1  0  0  0  0
 30 33  1  0  0  0  0
 14 34  1  0  0  0  0
  1 35  1  0  0  0  0
  1 36  1  0  0  0  0
  4 37  1  0  0  0  0
  4 38  1  0  0  0  0
  7 39  1  0  0  0  0
  7 40  1  0  0  0  0
 10 41  1  0  0  0  0
 10 42  1  0  0  0  0
 13 43  1  0  0  0  0
 15 44  1  0  0  0  0
 15 45  1  0  0  0  0
 17 46  1  0  0  0  0
  5 47  1  0  0  0  0
  8 48  1  0  0  0  0
 19 49  1  0  0  0  0
 19 50  1  0  0  0  0
 19 51  1  0  0  0  0
 21 52  1  0  0  0  0
 11 53  1  0  0  0  0
 23 54  1  0  0  0  0
 23 55  1  0  0  0  0
 24 56  1  0  0  0  0
 24 57  1  0  0  0  0
 25 58  1  0  0  0  0
 25 59  1  0  0  0  0
 29 60  1  0  0  0  0
 31 61  1  0  0  0  0
 31 62  1  0  0  0  0
 31 63  1  0  0  0  0
 32 64  1  0  0  0  0
 32 65  1  0  0  0  0
 32 66  1  0  0  0  0
 33 67  1  0  0  0  0
 33 68  1  0  0  0  0
 33 69  1  0  0  0  0
 34 70  1  0  0  0  0
 34 71  1  0  0  0  0
 34 72  1  0  0  0  0
 73 74  1  0  0  0  0
 74 76  1  0  0  0  0
 73 79  1  0  0  0  0
 76 82  1  0  0  0  0
 79 85  1  0  0  0  0
 82 85  1  0  0  0  0
 85 87  1  0  0  0  0
 86 88  1  0  0  0  0
 77 89  1  0  0  0  0
 87 89  1  0  0  0  0
 75 90  2  0  0  0  0
 80 90  1  0  0  0  0
 89 90  1  0  0  0  0
 80 91  1  0  0  0  0
 77 92  1  0  0  0  0
 78 92  2  0  0  0  0
 83 93  1  0  0  0  0
 92 93  1  0  0  0  0
 81 94  2  0  0  0  0
 83 94  1  0  0  0  0
 94 95  1  0  0  0  0
 95 96  1  0  0  0  0
 93 97  1  0  0  0  0
 96 97  1  0  0  0  0
 74 98  1  0  0  0  0
 84 98  2  0  0  0  0
 86 99  1  0  0  0  0
 98 99  1  0  0  0  0
 88100  2  0  0  0  0
 99101  2  0  0  0  0
100101  1  0  0  0  0
100102  1  0  0  0  0
102103  1  0  0  0  0
102104  1  0  0  0  0
102105  1  0  0  0  0
 86106  1  0  0  0  0
 73107  1  0  0  0  0
 73108  1  0  0  0  0
 76109  1  0  0  0  0
 76110  1  0  0  0  0
 79111  1  0  0  0  0
 79112  1  0  0  0  0
 82113  1  0  0  0  0
 82114  1  0  0  0  0
 85115  1  0  0  0  0
 87116  1  0  0  0  0
 87117  1  0  0  0  0
 89118  1  0  0  0  0
 77119  1  0  0  0  0
 80120  1  0  0  0  0
 91121  1  0  0  0  0
 91122  1  0  0  0  0
 91123  1  0  0  0  0
 93124  1  0  0  0  0
 83125  1  0  0  0  0
 95126  1  0  0  0  0
 95127  1  0  0  0  0
 96128  1  0  0  0  0
 96129  1  0  0  0  0
 97130  1  0  0  0  0
 97131  1  0  0  0  0
101132  1  0  0  0  0
103133  1  0  0  0  0
103134  1  0  0  0  0
103135  1  0  0  0  0
104136  1  0  0  0  0
104137  1  0  0  0  0
104138  1  0  0  0  0
105139  1  0  0  0  0
105140  1  0  0  0  0
105141  1  0  0  0  0
106142  1  0  0  0  0
106143  1  0  0  0  0
106144  1  0  0  0  0
145146  1  0  0  0  0
146148  1  0  0  0  0
145151  1  0  0  0  0
148154  1  0  0  0  0
151157  1  0  0  0  0
154157  1  0  0  0  0
157159  1  0  0  0  0
158160  1  0  0  0  0
149161  1  0  0  0  0
159161  1  0  0  0  0
147162  2  0  0  0  0
152162  1  0  0  0  0
161162  1  0  0  0  0
152163  1  0  0  0  0
149164  1  0  0  0  0
150164  2  0  0  0  0
155165  1  0  0  0  0
164165  1  0  0  0  0
153166  2  0  0  0  0
155166  1  0  0  0  0
166167  1  0  0  0  0
167168  1  0  0  0  0
165169  1  0  0  0  0
168169  1  0  0  0  0
146170  1  0  0  0  0
156170  2  0  0  0  0
158171  1  0  0  0  0
170171  1  0  0  0  0
160172  2  0  0  0  0
171173  2  0  0  0  0
172173  1  0  0  0  0
172174  1  0  0  0  0
174175  1  0  0  0  0
174176  1  0  0  0  0
174177  1  0  0  0  0
158178  1  0  0  0  0
145179  1  0  0  0  0
145180  1  0  0  0  0
148181  1  0  0  0  0
148182  1  0  0  0  0
151183  1  0  0  0  0
151184  1  0  0  0  0
154185  1  0  0  0  0
154186  1  0  0  0  0
157187  1  0  0  0  0
159188  1  0  0  0  0
159189  1  0  0  0  0
161190  1  0  0  0  0
149191  1  0  0  0  0
152192  1  0  0  0  0
163193  1  0  0  0  0
163194  1  0  0  0  0
163195  1  0  0  0  0
165196  1  0  0  0  0
155197  1  0  0  0  0
167198  1  0  0  0  0
167199  1  0  0  0  0
168200  1  0  0  0  0
168201  1  0  0  0  0
169202  1  0  0  0  0
169203  1  0  0  0  0
173204  1  0  0  0  0
175205  1  0  0  0  0
175206  1  0  0  0  0
175207  1  0  0  0  0
176208  1  0  0  0  0
176209  1  0  0  0  0
176210  1  0  0  0  0
177211  1  0  0  0  0
177212  1  0  0  0  0
177213  1  0  0  0  0
178214  1  0  0  0  0
178215  1  0  0  0  0
178216  1  0  0  0  0
M  END
$$$$
