6WFG
  PyMOL3.1          3D                             0

 72 74  0  0  0  0  0  0  0  0999 V2000
    4.6670   74.3870   18.1320 C   0  0  0  0  0  0  0  0  0  0  0  0
    3.5490   75.2960   17.9850 N   0  0  0  0  0  0  0  0  0  0  0  0
    5.1320   70.5630   13.8860 O   0  0  0  0  0  0  0  0  0  0  0  0
    3.0460   75.2520   16.6240 C   0  0  0  0  0  0  0  0  0  0  0  0
    2.6220   69.5720   14.7790 N   0  0  0  0  0  0  0  0  0  0  0  0
    2.3070   69.3640   12.5310 O   0  0  0  0  0  0  0  0  0  0  0  0
    4.2360   72.9690   17.8000 C   0  0  0  0  0  0  0  0  0  0  0  0
    3.9430   72.3270   13.0440 N   0  0  0  0  0  0  0  0  0  0  0  0
    2.0430   65.4010   10.7630 O   0  0  0  0  0  0  0  0  0  0  0  0
    2.5720   73.8510   16.2780 C   0  0  0  0  0  0  0  0  0  0  0  0
    1.7810   66.7130   12.6320 N   0  0  0  0  0  0  0  0  0  0  0  0
    3.5950   76.0550   20.1610 O   0  0  0  0  0  0  0  0  0  0  0  0
    3.7080   72.8570   16.3920 C   0  0  0  0  0  0  0  0  0  0  0  0
    1.2960   77.7260   19.5010 N   0  0  0  0  0  0  0  0  0  0  0  0
    3.2220   71.4260   16.2070 C   0  0  0  0  0  0  0  0  0  0  0  0
    0.0140   78.0470   19.2880 N   0  0  0  0  0  0  0  0  0  0  0  0
    2.9250   71.0010   14.7770 C   0  0  0  0  0  0  0  0  0  0  0  0
    4.1180   71.2460   13.8800 C   0  0  0  0  0  0  0  0  0  0  0  0
    4.9230   72.5660   12.0040 C   0  0  0  0  0  0  0  0  0  0  0  0
    2.4010   68.8410   13.6260 C   0  0  0  0  0  0  0  0  0  0  0  0
    2.2690   67.3350   13.8570 C   0  0  0  0  0  0  0  0  0  0  0  0
    2.5170   65.9050   11.7720 C   0  0  0  0  0  0  0  0  0  0  0  0
    3.9550   65.6320   12.1200 C   0  0  0  0  0  0  0  0  0  0  0  0
    4.5190   66.5710   13.1550 C   0  0  0  0  0  0  0  0  0  0  0  0
    3.5710   66.7180   14.3130 C   0  0  0  0  0  0  0  0  0  0  0  0
    3.0000   75.9520   19.0950 C   0  0  0  0  0  0  0  0  0  0  0  0
    1.6850   76.5200   18.9850 C   0  0  0  0  0  0  0  0  0  0  0  0
   -0.4630   77.0070   18.6020 C   0  0  0  0  0  0  0  0  0  0  0  0
    0.5390   76.0230   18.4040 C   0  0  0  0  0  0  0  0  0  0  0  0
   -1.8700   76.9550   18.1520 C   0  0  0  0  0  0  0  0  0  0  0  0
   -2.6990   76.2740   19.2120 C   0  0  0  0  0  0  0  0  0  0  0  0
   -1.9670   76.1730   16.8590 C   0  0  0  0  0  0  0  0  0  0  0  0
   -2.4520   78.3280   17.8900 C   0  0  0  0  0  0  0  0  0  0  0  0
    2.1270   78.6580   20.2380 C   0  0  0  0  0  0  0  0  0  0  0  0
    5.0730   74.4380   19.1430 H   0  0  0  0  0  0  0  0  0  0  0  0
    5.4510   74.7160   17.4460 H   0  0  0  0  0  0  0  0  0  0  0  0
    3.8770   75.5240   15.9680 H   0  0  0  0  0  0  0  0  0  0  0  0
    2.2590   75.9890   16.4700 H   0  0  0  0  0  0  0  0  0  0  0  0
    5.0720   72.2900   17.9620 H   0  0  0  0  0  0  0  0  0  0  0  0
    3.4300   72.6650   18.4630 H   0  0  0  0  0  0  0  0  0  0  0  0
    1.7850   73.5580   16.9700 H   0  0  0  0  0  0  0  0  0  0  0  0
    2.1570   73.8350   15.2670 H   0  0  0  0  0  0  0  0  0  0  0  0
    4.5010   73.1130   15.6870 H   0  0  0  0  0  0  0  0  0  0  0  0
    2.3160   71.2870   16.8050 H   0  0  0  0  0  0  0  0  0  0  0  0
    3.9660   70.7380   16.6120 H   0  0  0  0  0  0  0  0  0  0  0  0
    2.0450   71.5220   14.3910 H   0  0  0  0  0  0  0  0  0  0  0  0
    2.4010   69.1320   15.6680 H   0  0  0  0  0  0  0  0  0  0  0  0
    3.3360   73.0950   13.3260 H   0  0  0  0  0  0  0  0  0  0  0  0
    5.6520   73.2920   12.3720 H   0  0  0  0  0  0  0  0  0  0  0  0
    4.4150   72.9630   11.1240 H   0  0  0  0  0  0  0  0  0  0  0  0
    5.4400   71.6400   11.7390 H   0  0  0  0  0  0  0  0  0  0  0  0
    1.4990   67.1770   14.6190 H   0  0  0  0  0  0  0  0  0  0  0  0
    0.7810   66.7310   12.4850 H   0  0  0  0  0  0  0  0  0  0  0  0
    4.0150   64.6040   12.4890 H   0  0  0  0  0  0  0  0  0  0  0  0
    4.5440   65.6920   11.2010 H   0  0  0  0  0  0  0  0  0  0  0  0
    5.4730   66.1800   13.5170 H   0  0  0  0  0  0  0  0  0  0  0  0
    4.7120   67.5430   12.6940 H   0  0  0  0  0  0  0  0  0  0  0  0
    3.3720   65.7300   14.7340 H   0  0  0  0  0  0  0  0  0  0  0  0
    4.0170   67.3210   15.0990 H   0  0  0  0  0  0  0  0  0  0  0  0
    0.4440   75.0870   17.8840 H   0  0  0  0  0  0  0  0  0  0  0  0
   -3.6840   76.0130   18.8240 H   0  0  0  0  0  0  0  0  0  0  0  0
   -2.2090   75.3600   19.5560 H   0  0  0  0  0  0  0  0  0  0  0  0
   -2.8280   76.9380   20.0690 H   0  0  0  0  0  0  0  0  0  0  0  0
   -2.9320   76.3290   16.3730 H   0  0  0  0  0  0  0  0  0  0  0  0
   -1.1830   76.4860   16.1630 H   0  0  0  0  0  0  0  0  0  0  0  0
   -1.8500   75.1060   17.0550 H   0  0  0  0  0  0  0  0  0  0  0  0
   -3.4750   78.2470   17.5130 H   0  0  0  0  0  0  0  0  0  0  0  0
   -2.4800   78.9220   18.8070 H   0  0  0  0  0  0  0  0  0  0  0  0
   -1.8510   78.8590   17.1470 H   0  0  0  0  0  0  0  0  0  0  0  0
    3.0450   78.8190   19.6670 H   0  0  0  0  0  0  0  0  0  0  0  0
    1.5810   79.5980   20.3600 H   0  0  0  0  0  0  0  0  0  0  0  0
    2.3490   78.2160   21.2130 H   0  0  0  0  0  0  0  0  0  0  0  0
  1  2  1  0  0  0  0
  2  4  1  0  0  0  0
  1  7  1  0  0  0  0
  4 10  1  0  0  0  0
  7 13  1  0  0  0  0
 10 13  1  0  0  0  0
 13 15  1  0  0  0  0
 14 16  1  0  0  0  0
  5 17  1  0  0  0  0
 15 17  1  0  0  0  0
  3 18  2  0  0  0  0
  8 18  1  0  0  0  0
 17 18  1  0  0  0  0
  8 19  1  0  0  0  0
  5 20  1  0  0  0  0
  6 20  2  0  0  0  0
 11 21  1  0  0  0  0
 20 21  1  0  0  0  0
  9 22  2  0  0  0  0
 11 22  1  0  0  0  0
 22 23  1  0  0  0  0
 23 24  1  0  0  0  0
 21 25  1  0  0  0  0
 24 25  1  0  0  0  0
  2 26  1  0  0  0  0
 12 26  2  0  0  0  0
 14 27  1  0  0  0  0
 26 27  1  0  0  0  0
 16 28  2  0  0  0  0
 27 29  2  0  0  0  0
 28 29  1  0  0  0  0
 28 30  1  0  0  0  0
 30 31  1  0  0  0  0
 30 32  1  0  0  0  0
 30 33  1  0  0  0  0
 14 34  1  0  0  0  0
  1 35  1  0  0  0  0
  1 36  1  0  0  0  0
  4 37  1  0  0  0  0
  4 38  1  0  0  0  0
  7 39  1  0  0  0  0
  7 40  1  0  0  0  0
 10 41  1  0  0  0  0
 10 42  1  0  0  0  0
 13 43  1  0  0  0  0
 15 44  1  0  0  0  0
 15 45  1  0  0  0  0
 17 46  1  0  0  0  0
  5 47  1  0  0  0  0
  8 48  1  0  0  0  0
 19 49  1  0  0  0  0
 19 50  1  0  0  0  0
 19 51  1  0  0  0  0
 21 52  1  0  0  0  0
 11 53  1  0  0  0  0
 23 54  1  0  0  0  0
 23 55  1  0  0  0  0
 24 56  1  0  0  0  0
 24 57  1  0  0  0  0
 25 58  1  0  0  0  0
 25 59  1  0  0  0  0
 29 60  1  0  0  0  0
 31 61  1  0  0  0  0
 31 62  1  0  0  0  0
 31 63  1  0  0  0  0
 32 64  1  0  0  0  0
 32 65  1  0  0  0  0
 32 66  1  0  0  0  0
 33 67  1  0  0  0  0
 33 68  1  0  0  0  0
 33 69  1  0  0  0  0
 34 70  1  0  0  0  0
 34 71  1  0  0  0  0
 34 72  1  0  0  0  0
M  END
$$$$
