8TGD
  PyMOL3.1          3D                             0

 56 60  0  0  0  0  0  0  0  0999 V2000
   16.4920  -29.0910   90.5820 C   0  0  0  0  0  0  0  0  0  0  0  0
   19.0950  -28.7940   94.0220 N   0  0  0  0  0  0  0  0  0  0  0  0
   18.8300  -26.6750   92.1720 O   0  0  0  0  0  0  0  0  0  0  0  0
   17.4350  -28.0320   90.9840 C   0  0  0  0  0  0  0  0  0  0  0  0
   20.6600  -30.4850   94.5780 N   0  0  0  0  0  0  0  0  0  0  0  0
   18.4840  -30.9930   93.9010 O   0  0  0  0  0  0  0  0  0  0  0  0
   17.9350  -27.7280   92.2210 C   0  0  0  0  0  0  0  0  0  0  0  0
   21.0340  -34.0240   95.7360 N   0  0  0  0  0  0  0  0  0  0  0  0
   18.8500  -26.2670   90.8650 C   0  0  0  0  0  0  0  0  0  0  0  0
   22.4070  -35.7110   94.7350 N   0  0  0  0  0  0  0  0  0  0  0  0
   19.5700  -25.2000   90.3360 C   0  0  0  0  0  0  0  0  0  0  0  0
   22.4410  -33.6060   93.7320 N   0  0  0  0  0  0  0  0  0  0  0  0
   19.4810  -24.9530   88.9920 C   0  0  0  0  0  0  0  0  0  0  0  0
   18.6580  -25.7670   88.2160 C   0  0  0  0  0  0  0  0  0  0  0  0
   17.9050  -26.8180   88.7180 C   0  0  0  0  0  0  0  0  0  0  0  0
   18.0150  -27.0630   90.0740 C   0  0  0  0  0  0  0  0  0  0  0  0
   17.8050  -28.3200   93.5810 C   0  0  0  0  0  0  0  0  0  0  0  0
   19.3530  -30.1650   94.1530 C   0  0  0  0  0  0  0  0  0  0  0  0
   21.0770  -31.8440   94.6970 C   0  0  0  0  0  0  0  0  0  0  0  0
   20.6240  -32.7370   95.6860 C   0  0  0  0  0  0  0  0  0  0  0  0
   21.9380  -34.4190   94.7310 C   0  0  0  0  0  0  0  0  0  0  0  0
   21.9810  -32.3540   93.7400 C   0  0  0  0  0  0  0  0  0  0  0  0
   17.4010  -27.1450   94.5580 C   0  0  0  0  0  0  0  0  0  0  0  0
   20.3500  -24.4720   91.0930 F   0  0  0  0  0  0  0  0  0  0  0  0
   18.6030  -25.5040   86.9210 F   0  0  0  0  0  0  0  0  0  0  0  0
   16.3380  -26.4460   94.1330 F   0  0  0  0  0  0  0  0  0  0  0  0
   17.0680  -27.5880   95.7710 F   0  0  0  0  0  0  0  0  0  0  0  0
   18.3950  -26.2520   94.7550 F   0  0  0  0  0  0  0  0  0  0  0  0
   22.6050   11.1170  144.4850 C   0  0  0  0  0  0  0  0  0  0  0  0
   26.7660   10.7400  143.4530 N   0  0  0  0  0  0  0  0  0  0  0  0
   25.3810    8.6670  144.7710 O   0  0  0  0  0  0  0  0  0  0  0  0
   23.5700   10.0540  144.7920 C   0  0  0  0  0  0  0  0  0  0  0  0
   28.3370   12.4340  143.9660 N   0  0  0  0  0  0  0  0  0  0  0  0
   26.2270   12.9490  143.1160 O   0  0  0  0  0  0  0  0  0  0  0  0
   24.7270    9.7200  144.1540 C   0  0  0  0  0  0  0  0  0  0  0  0
   29.3620   15.9510  143.2260 N   0  0  0  0  0  0  0  0  0  0  0  0
   24.5740    8.2930  145.8060 C   0  0  0  0  0  0  0  0  0  0  0  0
   29.8020   17.6590  144.8070 N   0  0  0  0  0  0  0  0  0  0  0  0
   24.7950    7.2450  146.6910 C   0  0  0  0  0  0  0  0  0  0  0  0
   29.2010   15.5830  145.6710 N   0  0  0  0  0  0  0  0  0  0  0  0
   23.8810    7.0300  147.6830 C   0  0  0  0  0  0  0  0  0  0  0  0
   22.7660    7.8610  147.7550 C   0  0  0  0  0  0  0  0  0  0  0  0
   22.5080    8.8980  146.8710 C   0  0  0  0  0  0  0  0  0  0  0  0
   23.4410    9.1100  145.8820 C   0  0  0  0  0  0  0  0  0  0  0  0
   25.4820   10.2740  142.9990 C   0  0  0  0  0  0  0  0  0  0  0  0
   27.0540   12.1170  143.4830 C   0  0  0  0  0  0  0  0  0  0  0  0
   28.7390   13.7840  144.1090 C   0  0  0  0  0  0  0  0  0  0  0  0
   29.0070   14.6560  143.0390 C   0  0  0  0  0  0  0  0  0  0  0  0
   29.4370   16.3680  144.5580 C   0  0  0  0  0  0  0  0  0  0  0  0
   28.8470   14.3230  145.4060 C   0  0  0  0  0  0  0  0  0  0  0  0
   25.7670    9.0730  142.0040 C   0  0  0  0  0  0  0  0  0  0  0  0
   25.8640    6.5000  146.6030 F   0  0  0  0  0  0  0  0  0  0  0  0
   21.9120    7.6320  148.7350 F   0  0  0  0  0  0  0  0  0  0  0  0
   24.6630    8.3800  141.6810 F   0  0  0  0  0  0  0  0  0  0  0  0
   26.2700    9.4850  140.8400 F   0  0  0  0  0  0  0  0  0  0  0  0
   26.6520    8.1850  142.4940 F   0  0  0  0  0  0  0  0  0  0  0  0
  1  4  1  0  0  0  0
  3  7  1  0  0  0  0
  4  7  2  0  0  0  0
  3  9  1  0  0  0  0
  9 11  1  0  0  0  0
 11 13  2  0  0  0  0
 13 14  1  0  0  0  0
 14 15  2  0  0  0  0
  4 16  1  0  0  0  0
  9 16  2  0  0  0  0
 15 16  1  0  0  0  0
  2 17  1  0  0  0  0
  7 17  1  0  0  0  0
  2 18  1  0  0  0  0
  5 18  1  0  0  0  0
  6 18  2  0  0  0  0
  5 19  1  0  0  0  0
  8 20  2  0  0  0  0
 19 20  1  0  0  0  0
  8 21  1  0  0  0  0
 10 21  1  0  0  0  0
 12 21  2  0  0  0  0
 12 22  1  0  0  0  0
 19 22  2  0  0  0  0
 17 23  1  0  0  0  0
 11 24  1  0  0  0  0
 14 25  1  0  0  0  0
 23 26  1  0  0  0  0
 23 27  1  0  0  0  0
 23 28  1  0  0  0  0
 29 32  1  0  0  0  0
 31 35  1  0  0  0  0
 32 35  2  0  0  0  0
 31 37  1  0  0  0  0
 37 39  1  0  0  0  0
 39 41  2  0  0  0  0
 41 42  1  0  0  0  0
 42 43  2  0  0  0  0
 32 44  1  0  0  0  0
 37 44  2  0  0  0  0
 43 44  1  0  0  0  0
 30 45  1  0  0  0  0
 35 45  1  0  0  0  0
 30 46  1  0  0  0  0
 33 46  1  0  0  0  0
 34 46  2  0  0  0  0
 33 47  1  0  0  0  0
 36 48  2  0  0  0  0
 47 48  1  0  0  0  0
 36 49  1  0  0  0  0
 38 49  1  0  0  0  0
 40 49  2  0  0  0  0
 40 50  1  0  0  0  0
 47 50  2  0  0  0  0
 45 51  1  0  0  0  0
 39 52  1  0  0  0  0
 42 53  1  0  0  0  0
 51 54  1  0  0  0  0
 51 55  1  0  0  0  0
 51 56  1  0  0  0  0
M  END
$$$$
