9DQJ
  PyMOL3.1          3D                             0

 31 35  0  0  0  0  0  0  0  0999 V2000
  126.9120  131.1640   92.0900 C   0  0  0  0  0  0  0  0  0  0  0  0
  122.6150  136.3060   95.3350 N   0  0  0  0  0  0  0  0  0  0  0  0
  126.9960  132.5090   92.5440 O   0  0  0  0  0  0  0  0  0  0  0  0
  126.0940  132.9120   93.4910 C   0  0  0  0  0  0  0  0  0  0  0  0
  121.8240  138.1970   92.4220 N   0  0  0  0  0  0  0  0  0  0  0  0
  123.0680  136.2490   97.5210 O   0  0  0  0  0  0  0  0  0  0  0  0
  126.1040  134.2180   93.9440 C   0  0  0  0  0  0  0  0  0  0  0  0
  122.0150  139.0440   90.2770 N   0  0  0  0  0  0  0  0  0  0  0  0
  118.6580  141.2080   91.0470 O   0  0  0  0  0  0  0  0  0  0  0  0
  125.1900  134.6170   94.8950 C   0  0  0  0  0  0  0  0  0  0  0  0
  120.2420  139.7240   91.6860 N   0  0  0  0  0  0  0  0  0  0  0  0
  124.2500  133.7310   95.4060 C   0  0  0  0  0  0  0  0  0  0  0  0
  124.2600  132.4240   94.9400 C   0  0  0  0  0  0  0  0  0  0  0  0
  125.1700  132.0130   93.9930 C   0  0  0  0  0  0  0  0  0  0  0  0
  123.2450  134.1680   96.4350 C   0  0  0  0  0  0  0  0  0  0  0  0
  122.1120  133.2240   96.7990 C   0  0  0  0  0  0  0  0  0  0  0  0
  123.2080  133.4540   97.7750 C   0  0  0  0  0  0  0  0  0  0  0  0
  122.9390  135.6450   96.4590 C   0  0  0  0  0  0  0  0  0  0  0  0
  121.9890  135.7290   94.1400 C   0  0  0  0  0  0  0  0  0  0  0  0
  120.7190  136.4910   93.7930 C   0  0  0  0  0  0  0  0  0  0  0  0
  121.0120  137.9670   93.6130 C   0  0  0  0  0  0  0  0  0  0  0  0
  121.6770  138.5230   94.8560 C   0  0  0  0  0  0  0  0  0  0  0  0
  122.9290  137.7270   95.1810 C   0  0  0  0  0  0  0  0  0  0  0  0
  121.3740  138.9880   91.4330 C   0  0  0  0  0  0  0  0  0  0  0  0
  121.5170  139.8690   89.2870 C   0  0  0  0  0  0  0  0  0  0  0  0
  120.3560  140.6540   89.4770 C   0  0  0  0  0  0  0  0  0  0  0  0
  119.8820  141.4880   88.4340 C   0  0  0  0  0  0  0  0  0  0  0  0
  120.5630  141.5250   87.2440 C   0  0  0  0  0  0  0  0  0  0  0  0
  121.7140  140.7420   87.0620 C   0  0  0  0  0  0  0  0  0  0  0  0
  122.1820  139.9340   88.0560 C   0  0  0  0  0  0  0  0  0  0  0  0
  119.6750  140.5750   90.7630 C   0  0  0  0  0  0  0  0  0  0  0  0
  1  3  1  0  0  0  0
  3  4  1  0  0  0  0
  4  7  2  0  0  0  0
  7 10  1  0  0  0  0
 10 12  2  0  0  0  0
 12 13  1  0  0  0  0
  4 14  1  0  0  0  0
 13 14  2  0  0  0  0
 12 15  1  0  0  0  0
 15 16  1  0  0  0  0
 15 17  1  0  0  0  0
 16 17  1  0  0  0  0
  2 18  1  0  0  0  0
  6 18  2  0  0  0  0
 15 18  1  0  0  0  0
  2 19  1  0  0  0  0
 19 20  1  0  0  0  0
  5 21  1  0  0  0  0
 20 21  1  0  0  0  0
 21 22  1  0  0  0  0
  2 23  1  0  0  0  0
 22 23  1  0  0  0  0
  5 24  1  0  0  0  0
  8 24  2  0  0  0  0
 11 24  1  0  0  0  0
  8 25  1  0  0  0  0
 25 26  1  0  0  0  0
 26 27  2  0  0  0  0
 27 28  1  0  0  0  0
 28 29  2  0  0  0  0
 25 30  2  0  0  0  0
 29 30  1  0  0  0  0
  9 31  2  0  0  0  0
 11 31  1  0  0  0  0
 26 31  1  0  0  0  0
M  END
$$$$
