8SGE
  PyMOL3.1          3D                             0

 33 35  0  0  0  0  0  0  0  0999 V2000
   28.6470    9.1480   17.7370 N   0  0  0  0  0  0  0  0  0  0  0  0
   29.2460    9.1980   16.3970 C   0  0  0  0  0  0  0  0  0  0  0  0
   23.8650    5.9100   16.5390 O   0  0  0  0  0  0  0  0  0  0  0  0
   28.9980    7.8930   15.6440 C   0  0  0  0  0  0  0  0  0  0  0  0
   25.5060    7.4090   16.9790 N   0  0  0  0  0  0  0  0  0  0  0  0
   22.2770    9.5940   20.7490 O   0  0  0  0  0  0  0  0  0  0  0  0
   27.6280    7.3230   15.8990 C   0  0  0  0  0  0  0  0  0  0  0  0
   23.6530    7.9150   20.0500 N   0  0  0  0  0  0  0  0  0  0  0  0
   25.7590    7.6880   21.6920 O   0  0  0  0  0  0  0  0  0  0  0  0
   26.7950    7.9080   16.8010 C   0  0  0  0  0  0  0  0  0  0  0  0
   24.5810    6.5730   23.2350 O   0  0  0  0  0  0  0  0  0  0  0  0
   25.0070    6.2930   16.3200 C   0  0  0  0  0  0  0  0  0  0  0  0
   28.7680    9.1290   19.9910 O   0  0  0  0  0  0  0  0  0  0  0  0
   25.9230    5.6420   15.3920 C   0  0  0  0  0  0  0  0  0  0  0  0
   30.6300    9.3340   18.7320 O   0  0  0  0  0  0  0  0  0  0  0  0
   27.1560    6.1590   15.2070 C   0  0  0  0  0  0  0  0  0  0  0  0
   32.0330   11.5430   19.5540 O   0  0  0  0  0  0  0  0  0  0  0  0
   25.3590    4.3950   14.7660 C   0  0  0  0  0  0  0  0  0  0  0  0
   24.5670    4.6740   13.4870 C   0  0  0  0  0  0  0  0  0  0  0  0
   23.0830    4.8360   13.7880 C   0  0  0  0  0  0  0  0  0  0  0  0
   26.3790    3.2680   14.6480 C   0  0  0  0  0  0  0  0  0  0  0  0
   24.6320    8.0050   17.9130 C   0  0  0  0  0  0  0  0  0  0  0  0
   24.4790    7.3820   19.1000 C   0  0  0  0  0  0  0  0  0  0  0  0
   22.9750    9.1350   19.8570 C   0  0  0  0  0  0  0  0  0  0  0  0
   23.1650    9.7710   18.5770 C   0  0  0  0  0  0  0  0  0  0  0  0
   23.9460    9.2210   17.6330 C   0  0  0  0  0  0  0  0  0  0  0  0
   23.4310    7.1790   21.2870 C   0  0  0  0  0  0  0  0  0  0  0  0
   24.7120    7.1760   22.0890 C   0  0  0  0  0  0  0  0  0  0  0  0
   27.1960    9.0040   17.7370 C   0  0  0  0  0  0  0  0  0  0  0  0
   29.3060    9.2040   18.9130 C   0  0  0  0  0  0  0  0  0  0  0  0
   31.4320    9.2950   19.9440 C   0  0  0  0  0  0  0  0  0  0  0  0
   31.4860   10.6760   20.5130 C   0  0  0  0  0  0  0  0  0  0  0  0
   32.6550   12.6700   20.1550 C   0  0  0  0  0  0  0  0  0  0  0  0
  1  2  1  0  0  0  0
  2  4  1  0  0  0  0
  4  7  1  0  0  0  0
  5 10  1  0  0  0  0
  7 10  2  0  0  0  0
  3 12  2  0  0  0  0
  5 12  1  0  0  0  0
 12 14  1  0  0  0  0
  7 16  1  0  0  0  0
 14 16  2  0  0  0  0
 14 18  1  0  0  0  0
 18 19  1  0  0  0  0
 19 20  1  0  0  0  0
 18 21  1  0  0  0  0
  5 22  1  0  0  0  0
  8 23  1  0  0  0  0
 22 23  2  0  0  0  0
  6 24  2  0  0  0  0
  8 24  1  0  0  0  0
 24 25  1  0  0  0  0
 22 26  1  0  0  0  0
 25 26  2  0  0  0  0
  8 27  1  0  0  0  0
  9 28  1  0  0  0  0
 11 28  2  0  0  0  0
 27 28  1  0  0  0  0
  1 29  1  0  0  0  0
 10 29  1  0  0  0  0
  1 30  1  0  0  0  0
 13 30  2  0  0  0  0
 15 30  1  0  0  0  0
 15 31  1  0  0  0  0
 17 32  1  0  0  0  0
 31 32  1  0  0  0  0
 17 33  1  0  0  0  0
M  END
$$$$
