8SGE
  PyMOL3.1          3D                             0

 66 70  0  0  0  0  0  0  0  0999 V2000
   28.6470    9.1480   17.7370 N   0  0  0  0  0  0  0  0  0  0  0  0
   29.2460    9.1980   16.3970 C   0  0  0  0  0  0  0  0  0  0  0  0
   23.8650    5.9100   16.5390 O   0  0  0  0  0  0  0  0  0  0  0  0
   28.9980    7.8930   15.6440 C   0  0  0  0  0  0  0  0  0  0  0  0
   25.5060    7.4090   16.9790 N   0  0  0  0  0  0  0  0  0  0  0  0
   22.2770    9.5940   20.7490 O   0  0  0  0  0  0  0  0  0  0  0  0
   27.6280    7.3230   15.8990 C   0  0  0  0  0  0  0  0  0  0  0  0
   23.6530    7.9150   20.0500 N   0  0  0  0  0  0  0  0  0  0  0  0
   25.7590    7.6880   21.6920 O   0  0  0  0  0  0  0  0  0  0  0  0
   26.7950    7.9080   16.8010 C   0  0  0  0  0  0  0  0  0  0  0  0
   24.5810    6.5730   23.2350 O   0  0  0  0  0  0  0  0  0  0  0  0
   25.0070    6.2930   16.3200 C   0  0  0  0  0  0  0  0  0  0  0  0
   28.7680    9.1290   19.9910 O   0  0  0  0  0  0  0  0  0  0  0  0
   25.9230    5.6420   15.3920 C   0  0  0  0  0  0  0  0  0  0  0  0
   30.6300    9.3340   18.7320 O   0  0  0  0  0  0  0  0  0  0  0  0
   27.1560    6.1590   15.2070 C   0  0  0  0  0  0  0  0  0  0  0  0
   32.0330   11.5430   19.5540 O   0  0  0  0  0  0  0  0  0  0  0  0
   25.3590    4.3950   14.7660 C   0  0  0  0  0  0  0  0  0  0  0  0
   24.5670    4.6740   13.4870 C   0  0  0  0  0  0  0  0  0  0  0  0
   23.0830    4.8360   13.7880 C   0  0  0  0  0  0  0  0  0  0  0  0
   26.3790    3.2680   14.6480 C   0  0  0  0  0  0  0  0  0  0  0  0
   24.6320    8.0050   17.9130 C   0  0  0  0  0  0  0  0  0  0  0  0
   24.4790    7.3820   19.1000 C   0  0  0  0  0  0  0  0  0  0  0  0
   22.9750    9.1350   19.8570 C   0  0  0  0  0  0  0  0  0  0  0  0
   23.1650    9.7710   18.5770 C   0  0  0  0  0  0  0  0  0  0  0  0
   23.9460    9.2210   17.6330 C   0  0  0  0  0  0  0  0  0  0  0  0
   23.4310    7.1790   21.2870 C   0  0  0  0  0  0  0  0  0  0  0  0
   24.7120    7.1760   22.0890 C   0  0  0  0  0  0  0  0  0  0  0  0
   27.1960    9.0040   17.7370 C   0  0  0  0  0  0  0  0  0  0  0  0
   29.3060    9.2040   18.9130 C   0  0  0  0  0  0  0  0  0  0  0  0
   31.4320    9.2950   19.9440 C   0  0  0  0  0  0  0  0  0  0  0  0
   31.4860   10.6760   20.5130 C   0  0  0  0  0  0  0  0  0  0  0  0
   32.6550   12.6700   20.1550 C   0  0  0  0  0  0  0  0  0  0  0  0
   28.5790   -6.3070  -19.8830 N   0  0  0  0  0  0  0  0  0  0  0  0
   29.2680   -6.3670  -18.5860 C   0  0  0  0  0  0  0  0  0  0  0  0
   23.7480   -3.2350  -18.4960 O   0  0  0  0  0  0  0  0  0  0  0  0
   28.9350   -5.1480  -17.7240 C   0  0  0  0  0  0  0  0  0  0  0  0
   25.4120   -4.6990  -19.0090 N   0  0  0  0  0  0  0  0  0  0  0  0
   22.0330   -6.8170  -22.7200 O   0  0  0  0  0  0  0  0  0  0  0  0
   27.5460   -4.5990  -17.9430 C   0  0  0  0  0  0  0  0  0  0  0  0
   23.4280   -5.1550  -22.0000 N   0  0  0  0  0  0  0  0  0  0  0  0
   25.5620   -4.9240  -23.6750 O   0  0  0  0  0  0  0  0  0  0  0  0
   26.7160   -5.1750  -18.8550 C   0  0  0  0  0  0  0  0  0  0  0  0
   24.4350   -3.6480  -25.1230 O   0  0  0  0  0  0  0  0  0  0  0  0
   24.9000   -3.5950  -18.3130 C   0  0  0  0  0  0  0  0  0  0  0  0
   28.5520   -6.2380  -22.1420 O   0  0  0  0  0  0  0  0  0  0  0  0
   25.8090   -2.9520  -17.3860 C   0  0  0  0  0  0  0  0  0  0  0  0
   30.4910   -6.4490  -21.0130 O   0  0  0  0  0  0  0  0  0  0  0  0
   27.0500   -3.4630  -17.2080 C   0  0  0  0  0  0  0  0  0  0  0  0
   31.1330   -8.6760  -21.8510 O   0  0  0  0  0  0  0  0  0  0  0  0
   25.2720   -1.6710  -16.8040 C   0  0  0  0  0  0  0  0  0  0  0  0
   24.3760   -1.8890  -15.5760 C   0  0  0  0  0  0  0  0  0  0  0  0
   22.9130   -2.1690  -15.9030 C   0  0  0  0  0  0  0  0  0  0  0  0
   26.3480   -0.6050  -16.6140 C   0  0  0  0  0  0  0  0  0  0  0  0
   24.5320   -5.3300  -19.9200 C   0  0  0  0  0  0  0  0  0  0  0  0
   24.2460   -4.6350  -21.0400 C   0  0  0  0  0  0  0  0  0  0  0  0
   22.8370   -6.4270  -21.8730 C   0  0  0  0  0  0  0  0  0  0  0  0
   23.1780   -7.1610  -20.6710 C   0  0  0  0  0  0  0  0  0  0  0  0
   23.9830   -6.6290  -19.7250 C   0  0  0  0  0  0  0  0  0  0  0  0
   23.2370   -4.4110  -23.2390 C   0  0  0  0  0  0  0  0  0  0  0  0
   24.5250   -4.3630  -24.0270 C   0  0  0  0  0  0  0  0  0  0  0  0
   27.1250   -6.2720  -19.7820 C   0  0  0  0  0  0  0  0  0  0  0  0
   29.1590   -6.3320  -21.1020 C   0  0  0  0  0  0  0  0  0  0  0  0
   31.2280   -6.3410  -22.2640 C   0  0  0  0  0  0  0  0  0  0  0  0
   31.3480   -7.7070  -22.8570 C   0  0  0  0  0  0  0  0  0  0  0  0
   30.2020   -9.6520  -22.2700 C   0  0  0  0  0  0  0  0  0  0  0  0
  1  2  1  0  0  0  0
  2  4  1  0  0  0  0
  4  7  1  0  0  0  0
  5 10  1  0  0  0  0
  7 10  2  0  0  0  0
  3 12  2  0  0  0  0
  5 12  1  0  0  0  0
 12 14  1  0  0  0  0
  7 16  1  0  0  0  0
 14 16  2  0  0  0  0
 14 18  1  0  0  0  0
 18 19  1  0  0  0  0
 19 20  1  0  0  0  0
 18 21  1  0  0  0  0
  5 22  1  0  0  0  0
  8 23  1  0  0  0  0
 22 23  2  0  0  0  0
  6 24  2  0  0  0  0
  8 24  1  0  0  0  0
 24 25  1  0  0  0  0
 22 26  1  0  0  0  0
 25 26  2  0  0  0  0
  8 27  1  0  0  0  0
  9 28  1  0  0  0  0
 11 28  2  0  0  0  0
 27 28  1  0  0  0  0
  1 29  1  0  0  0  0
 10 29  1  0  0  0  0
  1 30  1  0  0  0  0
 13 30  2  0  0  0  0
 15 30  1  0  0  0  0
 15 31  1  0  0  0  0
 17 32  1  0  0  0  0
 31 32  1  0  0  0  0
 17 33  1  0  0  0  0
 34 35  1  0  0  0  0
 35 37  1  0  0  0  0
 37 40  1  0  0  0  0
 38 43  1  0  0  0  0
 40 43  2  0  0  0  0
 36 45  2  0  0  0  0
 38 45  1  0  0  0  0
 45 47  1  0  0  0  0
 40 49  1  0  0  0  0
 47 49  2  0  0  0  0
 47 51  1  0  0  0  0
 51 52  1  0  0  0  0
 52 53  1  0  0  0  0
 51 54  1  0  0  0  0
 38 55  1  0  0  0  0
 41 56  1  0  0  0  0
 55 56  2  0  0  0  0
 39 57  2  0  0  0  0
 41 57  1  0  0  0  0
 57 58  1  0  0  0  0
 55 59  1  0  0  0  0
 58 59  2  0  0  0  0
 41 60  1  0  0  0  0
 42 61  1  0  0  0  0
 44 61  2  0  0  0  0
 60 61  1  0  0  0  0
 34 62  1  0  0  0  0
 43 62  1  0  0  0  0
 34 63  1  0  0  0  0
 46 63  2  0  0  0  0
 48 63  1  0  0  0  0
 48 64  1  0  0  0  0
 50 65  1  0  0  0  0
 64 65  1  0  0  0  0
 50 66  1  0  0  0  0
M  END
$$$$
