8QUC
  PyMOL3.1          3D                             0

100108  0  0  0  0  0  0  0  0999 V2000
  162.4910  130.4390  157.8610 C   0  0  0  0  0  0  0  0  0  0  0  0
  162.0450  133.8880  156.8350 N   0  0  0  0  0  0  0  0  0  0  0  0
  161.9470  135.7990  155.6110 O   0  0  0  0  0  0  0  0  0  0  0  0
  162.7220  131.5640  156.8790 C   0  0  0  0  0  0  0  0  0  0  0  0
  161.3500  133.7220  154.7370 N   0  0  0  0  0  0  0  0  0  0  0  0
  161.0370  134.7880  149.3680 O   0  0  0  0  0  0  0  0  0  0  0  0
  161.5440  132.5240  156.7450 C   0  0  0  0  0  0  0  0  0  0  0  0
  160.0090  134.0900  151.3100 N   0  0  0  0  0  0  0  0  0  0  0  0
  158.2750  132.2610  146.3540 O   0  0  0  0  0  0  0  0  0  0  0  0
  161.8060  134.6070  155.7380 C   0  0  0  0  0  0  0  0  0  0  0  0
  160.3540  131.6440  154.8120 O   0  0  0  0  0  0  0  0  0  0  0  0
  161.2870  134.0080  153.3320 C   0  0  0  0  0  0  0  0  0  0  0  0
  162.3990  134.4680  152.6610 C   0  0  0  0  0  0  0  0  0  0  0  0
  162.3060  134.7310  151.3100 C   0  0  0  0  0  0  0  0  0  0  0  0
  161.0890  134.5210  150.7020 C   0  0  0  0  0  0  0  0  0  0  0  0
  159.8610  134.6340  148.6220 C   0  0  0  0  0  0  0  0  0  0  0  0
  158.9190  135.6340  148.6430 C   0  0  0  0  0  0  0  0  0  0  0  0
  157.7660  135.4820  147.8950 C   0  0  0  0  0  0  0  0  0  0  0  0
  157.5460  134.3490  147.1230 C   0  0  0  0  0  0  0  0  0  0  0  0
  156.3040  134.1890  146.3120 C   0  0  0  0  0  0  0  0  0  0  0  0
  158.5360  133.3500  147.1250 C   0  0  0  0  0  0  0  0  0  0  0  0
  158.9730  131.0580  146.6440 C   0  0  0  0  0  0  0  0  0  0  0  0
  159.6910  133.4940  147.8670 C   0  0  0  0  0  0  0  0  0  0  0  0
  160.1070  133.8290  152.6250 C   0  0  0  0  0  0  0  0  0  0  0  0
  160.9930  132.5220  155.3330 C   0  0  0  0  0  0  0  0  0  0  0  0
  135.4950  162.4570  157.8670 C   0  0  0  0  0  0  0  0  0  0  0  0
  132.0460  162.0100  156.8420 N   0  0  0  0  0  0  0  0  0  0  0  0
  130.1350  161.9120  155.6180 O   0  0  0  0  0  0  0  0  0  0  0  0
  134.3700  162.6880  156.8860 C   0  0  0  0  0  0  0  0  0  0  0  0
  132.2120  161.3160  154.7440 N   0  0  0  0  0  0  0  0  0  0  0  0
  131.1450  161.0040  149.3750 O   0  0  0  0  0  0  0  0  0  0  0  0
  133.4110  161.5090  156.7510 C   0  0  0  0  0  0  0  0  0  0  0  0
  131.8440  159.9760  151.3160 N   0  0  0  0  0  0  0  0  0  0  0  0
  133.6720  158.2440  146.3590 O   0  0  0  0  0  0  0  0  0  0  0  0
  131.3270  161.7710  155.7450 C   0  0  0  0  0  0  0  0  0  0  0  0
  134.2910  160.3200  154.8180 O   0  0  0  0  0  0  0  0  0  0  0  0
  131.9260  161.2530  153.3390 C   0  0  0  0  0  0  0  0  0  0  0  0
  131.4650  162.3650  152.6680 C   0  0  0  0  0  0  0  0  0  0  0  0
  131.2020  162.2720  151.3170 C   0  0  0  0  0  0  0  0  0  0  0  0
  131.4120  161.0560  150.7090 C   0  0  0  0  0  0  0  0  0  0  0  0
  131.2990  159.8280  148.6280 C   0  0  0  0  0  0  0  0  0  0  0  0
  130.3000  158.8860  148.6490 C   0  0  0  0  0  0  0  0  0  0  0  0
  130.4520  157.7330  147.9010 C   0  0  0  0  0  0  0  0  0  0  0  0
  131.5850  157.5140  147.1290 C   0  0  0  0  0  0  0  0  0  0  0  0
  131.7450  156.2720  146.3170 C   0  0  0  0  0  0  0  0  0  0  0  0
  132.5830  158.5040  147.1310 C   0  0  0  0  0  0  0  0  0  0  0  0
  134.8750  158.9420  146.6490 C   0  0  0  0  0  0  0  0  0  0  0  0
  132.4390  159.6590  147.8730 C   0  0  0  0  0  0  0  0  0  0  0  0
  132.1050  160.0730  152.6310 C   0  0  0  0  0  0  0  0  0  0  0  0
  133.4120  160.9590  155.3390 C   0  0  0  0  0  0  0  0  0  0  0  0
  130.4910  103.4740  157.8860 C   0  0  0  0  0  0  0  0  0  0  0  0
  133.9390  103.9220  156.8570 N   0  0  0  0  0  0  0  0  0  0  0  0
  135.8490  104.0200  155.6310 O   0  0  0  0  0  0  0  0  0  0  0  0
  131.6160  103.2430  156.9040 C   0  0  0  0  0  0  0  0  0  0  0  0
  133.7710  104.6140  154.7580 N   0  0  0  0  0  0  0  0  0  0  0  0
  134.8310  104.9220  149.3880 O   0  0  0  0  0  0  0  0  0  0  0  0
  132.5750  104.4210  156.7670 C   0  0  0  0  0  0  0  0  0  0  0  0
  134.1340  105.9510  151.3290 N   0  0  0  0  0  0  0  0  0  0  0  0
  132.2990  107.6780  146.3730 O   0  0  0  0  0  0  0  0  0  0  0  0
  134.6570  104.1600  155.7590 C   0  0  0  0  0  0  0  0  0  0  0  0
  131.6920  105.6080  154.8340 O   0  0  0  0  0  0  0  0  0  0  0  0
  134.0550  104.6760  153.3530 C   0  0  0  0  0  0  0  0  0  0  0  0
  134.5160  103.5630  152.6830 C   0  0  0  0  0  0  0  0  0  0  0  0
  134.7770  103.6550  151.3310 C   0  0  0  0  0  0  0  0  0  0  0  0
  134.5660  104.8710  150.7220 C   0  0  0  0  0  0  0  0  0  0  0  0
  134.6760  106.0970  148.6410 C   0  0  0  0  0  0  0  0  0  0  0  0
  135.6750  107.0400  148.6600 C   0  0  0  0  0  0  0  0  0  0  0  0
  135.5210  108.1920  147.9100 C   0  0  0  0  0  0  0  0  0  0  0  0
  134.3870  108.4100  147.1390 C   0  0  0  0  0  0  0  0  0  0  0  0
  134.2260  109.6510  146.3270 C   0  0  0  0  0  0  0  0  0  0  0  0
  133.3890  107.4190  147.1430 C   0  0  0  0  0  0  0  0  0  0  0  0
  131.0970  106.9800  146.6650 C   0  0  0  0  0  0  0  0  0  0  0  0
  133.5350  106.2650  147.8860 C   0  0  0  0  0  0  0  0  0  0  0  0
  133.8750  105.8550  152.6450 C   0  0  0  0  0  0  0  0  0  0  0  0
  132.5710  104.9710  155.3550 C   0  0  0  0  0  0  0  0  0  0  0  0
  103.4090  135.4920  157.8250 C   0  0  0  0  0  0  0  0  0  0  0  0
  103.8580  132.0440  156.7990 N   0  0  0  0  0  0  0  0  0  0  0  0
  103.9580  130.1330  155.5740 O   0  0  0  0  0  0  0  0  0  0  0  0
  103.1800  134.3670  156.8420 C   0  0  0  0  0  0  0  0  0  0  0  0
  104.5550  132.2100  154.7020 N   0  0  0  0  0  0  0  0  0  0  0  0
  104.8750  131.1460  149.3330 O   0  0  0  0  0  0  0  0  0  0  0  0
  104.3580  133.4080  156.7100 C   0  0  0  0  0  0  0  0  0  0  0  0
  105.9010  131.8440  151.2760 N   0  0  0  0  0  0  0  0  0  0  0  0
  107.6400  133.6750  146.3230 O   0  0  0  0  0  0  0  0  0  0  0  0
  104.0980  131.3250  155.7020 C   0  0  0  0  0  0  0  0  0  0  0  0
  105.5500  134.2890  154.7780 O   0  0  0  0  0  0  0  0  0  0  0  0
  104.6200  131.9250  153.2970 C   0  0  0  0  0  0  0  0  0  0  0  0
  103.5090  131.4650  152.6240 C   0  0  0  0  0  0  0  0  0  0  0  0
  103.6040  131.2020  151.2730 C   0  0  0  0  0  0  0  0  0  0  0  0
  104.8220  131.4130  150.6670 C   0  0  0  0  0  0  0  0  0  0  0  0
  106.0520  131.3000  148.5880 C   0  0  0  0  0  0  0  0  0  0  0  0
  106.9950  130.3010  148.6100 C   0  0  0  0  0  0  0  0  0  0  0  0
  108.1490  130.4530  147.8640 C   0  0  0  0  0  0  0  0  0  0  0  0
  108.3690  131.5870  147.0920 C   0  0  0  0  0  0  0  0  0  0  0  0
  109.6120  131.7470  146.2830 C   0  0  0  0  0  0  0  0  0  0  0  0
  107.3790  132.5850  147.0930 C   0  0  0  0  0  0  0  0  0  0  0  0
  106.9420  134.8770  146.6120 C   0  0  0  0  0  0  0  0  0  0  0  0
  106.2230  132.4410  147.8340 C   0  0  0  0  0  0  0  0  0  0  0  0
  105.8010  132.1040  152.5910 C   0  0  0  0  0  0  0  0  0  0  0  0
  104.9110  133.4100  155.2980 C   0  0  0  0  0  0  0  0  0  0  0  0
  1  4  1  0  0  0  0
  2  7  1  0  0  0  0
  4  7  1  0  0  0  0
  2 10  1  0  0  0  0
  3 10  2  0  0  0  0
  5 10  1  0  0  0  0
  5 12  1  0  0  0  0
 12 13  1  0  0  0  0
 13 14  2  0  0  0  0
  6 15  1  0  0  0  0
  8 15  2  0  0  0  0
 14 15  1  0  0  0  0
  6 16  1  0  0  0  0
 16 17  1  0  0  0  0
 17 18  2  0  0  0  0
 18 19  1  0  0  0  0
 19 20  1  0  0  0  0
  9 21  1  0  0  0  0
 19 21  2  0  0  0  0
  9 22  1  0  0  0  0
 16 23  2  0  0  0  0
 21 23  1  0  0  0  0
  8 24  1  0  0  0  0
 12 24  2  0  0  0  0
  5 25  1  0  0  0  0
  7 25  1  0  0  0  0
 11 25  2  0  0  0  0
 26 29  1  0  0  0  0
 27 32  1  0  0  0  0
 29 32  1  0  0  0  0
 27 35  1  0  0  0  0
 28 35  2  0  0  0  0
 30 35  1  0  0  0  0
 30 37  1  0  0  0  0
 37 38  1  0  0  0  0
 38 39  2  0  0  0  0
 31 40  1  0  0  0  0
 33 40  2  0  0  0  0
 39 40  1  0  0  0  0
 31 41  1  0  0  0  0
 41 42  1  0  0  0  0
 42 43  2  0  0  0  0
 43 44  1  0  0  0  0
 44 45  1  0  0  0  0
 34 46  1  0  0  0  0
 44 46  2  0  0  0  0
 34 47  1  0  0  0  0
 41 48  2  0  0  0  0
 46 48  1  0  0  0  0
 33 49  1  0  0  0  0
 37 49  2  0  0  0  0
 30 50  1  0  0  0  0
 32 50  1  0  0  0  0
 36 50  2  0  0  0  0
 51 54  1  0  0  0  0
 52 57  1  0  0  0  0
 54 57  1  0  0  0  0
 52 60  1  0  0  0  0
 53 60  2  0  0  0  0
 55 60  1  0  0  0  0
 55 62  1  0  0  0  0
 62 63  1  0  0  0  0
 63 64  2  0  0  0  0
 56 65  1  0  0  0  0
 58 65  2  0  0  0  0
 64 65  1  0  0  0  0
 56 66  1  0  0  0  0
 66 67  1  0  0  0  0
 67 68  2  0  0  0  0
 68 69  1  0  0  0  0
 69 70  1  0  0  0  0
 59 71  1  0  0  0  0
 69 71  2  0  0  0  0
 59 72  1  0  0  0  0
 66 73  2  0  0  0  0
 71 73  1  0  0  0  0
 58 74  1  0  0  0  0
 62 74  2  0  0  0  0
 55 75  1  0  0  0  0
 57 75  1  0  0  0  0
 61 75  2  0  0  0  0
 76 79  1  0  0  0  0
 77 82  1  0  0  0  0
 79 82  1  0  0  0  0
 77 85  1  0  0  0  0
 78 85  2  0  0  0  0
 80 85  1  0  0  0  0
 80 87  1  0  0  0  0
 87 88  1  0  0  0  0
 88 89  2  0  0  0  0
 81 90  1  0  0  0  0
 83 90  2  0  0  0  0
 89 90  1  0  0  0  0
 81 91  1  0  0  0  0
 91 92  1  0  0  0  0
 92 93  2  0  0  0  0
 93 94  1  0  0  0  0
 94 95  1  0  0  0  0
 84 96  1  0  0  0  0
 94 96  2  0  0  0  0
 84 97  1  0  0  0  0
 91 98  2  0  0  0  0
 96 98  1  0  0  0  0
 83 99  1  0  0  0  0
 87 99  2  0  0  0  0
 80100  1  0  0  0  0
 82100  1  0  0  0  0
 86100  2  0  0  0  0
M  END
$$$$
