7DXF
  PyMOL3.1          3D                             0

 25 28  0  0  0  0  0  0  0  0999 V2000
  168.4410  140.5720  160.1890 N   0  0  0  0  0  0  0  0  0  0  0  0
  166.4500  145.7530  162.1540 C   0  0  0  0  0  0  0  0  0  0  0  0
  166.6860  144.7870  163.2020 O   0  0  0  0  0  0  0  0  0  0  0  0
  167.1410  143.6290  162.6410 C   0  0  0  0  0  0  0  0  0  0  0  0
  167.2080  140.7970  158.1490 N   0  0  0  0  0  0  0  0  0  0  0  0
  166.1100  140.1330  154.9420 O   0  0  0  0  0  0  0  0  0  0  0  0
  167.5030  142.4240  163.2200 C   0  0  0  0  0  0  0  0  0  0  0  0
  165.0500  141.6690  156.1600 N   0  0  0  0  0  0  0  0  0  0  0  0
  166.8000  145.0910  160.9190 O   0  0  0  0  0  0  0  0  0  0  0  0
  167.9350  141.4180  162.3520 C   0  0  0  0  0  0  0  0  0  0  0  0
  168.0030  141.5960  160.9600 C   0  0  0  0  0  0  0  0  0  0  0  0
  167.6490  142.8100  160.3650 C   0  0  0  0  0  0  0  0  0  0  0  0
  167.2130  143.8210  161.2030 C   0  0  0  0  0  0  0  0  0  0  0  0
  167.7090  140.0630  159.1680 C   0  0  0  0  0  0  0  0  0  0  0  0
  166.5110  140.0330  157.2420 C   0  0  0  0  0  0  0  0  0  0  0  0
  166.4690  138.6560  157.5380 C   0  0  0  0  0  0  0  0  0  0  0  0
  165.8620  140.6180  156.0340 C   0  0  0  0  0  0  0  0  0  0  0  0
  163.9960  141.6920  157.1800 C   0  0  0  0  0  0  0  0  0  0  0  0
  163.7140  143.1180  157.6730 C   0  0  0  0  0  0  0  0  0  0  0  0
  163.4810  144.0960  156.5220 C   0  0  0  0  0  0  0  0  0  0  0  0
  163.8500  143.5090  155.1690 C   0  0  0  0  0  0  0  0  0  0  0  0
  165.2010  142.8130  155.2630 C   0  0  0  0  0  0  0  0  0  0  0  0
  163.8960  144.6110  154.1230 C   0  0  0  0  0  0  0  0  0  0  0  0
  164.7850  143.6360  158.6310 C   0  0  0  0  0  0  0  0  0  0  0  0
  167.3420  138.3890  159.0140 S   0  0  0  0  0  0  0  0  0  0  0  0
  2  3  1  0  0  0  0
  3  4  1  0  0  0  0
  4  7  1  0  0  0  0
  2  9  1  0  0  0  0
  7 10  2  0  0  0  0
  1 11  1  0  0  0  0
 10 11  1  0  0  0  0
 11 12  2  0  0  0  0
  4 13  2  0  0  0  0
  9 13  1  0  0  0  0
 12 13  1  0  0  0  0
  1 14  1  0  0  0  0
  5 14  2  0  0  0  0
  5 15  1  0  0  0  0
 15 16  2  0  0  0  0
  6 17  2  0  0  0  0
  8 17  1  0  0  0  0
 15 17  1  0  0  0  0
  8 18  1  0  0  0  0
 18 19  1  0  0  0  0
 19 20  1  0  0  0  0
 20 21  1  0  0  0  0
  8 22  1  0  0  0  0
 21 22  1  0  0  0  0
 21 23  1  0  0  0  0
 19 24  1  0  0  0  0
 14 25  1  0  0  0  0
 16 25  1  0  0  0  0
M  END
$$$$
