7DXF
  PyMOL3.1          3D                             0

 25 28  0  0  0  0  0  0  0  0999 V2000
  124.1480  152.0300  160.1870 N   0  0  0  0  0  0  0  0  0  0  0  0
  126.1390  146.8490  162.1520 C   0  0  0  0  0  0  0  0  0  0  0  0
  125.9030  147.8150  163.2000 O   0  0  0  0  0  0  0  0  0  0  0  0
  125.4480  148.9730  162.6390 C   0  0  0  0  0  0  0  0  0  0  0  0
  125.3820  151.8050  158.1470 N   0  0  0  0  0  0  0  0  0  0  0  0
  126.4790  152.4700  154.9400 O   0  0  0  0  0  0  0  0  0  0  0  0
  125.0860  150.1780  163.2180 C   0  0  0  0  0  0  0  0  0  0  0  0
  127.5400  150.9330  156.1580 N   0  0  0  0  0  0  0  0  0  0  0  0
  125.7890  147.5110  160.9170 O   0  0  0  0  0  0  0  0  0  0  0  0
  124.6540  151.1850  162.3500 C   0  0  0  0  0  0  0  0  0  0  0  0
  124.5860  151.0070  160.9580 C   0  0  0  0  0  0  0  0  0  0  0  0
  124.9410  149.7920  160.3630 C   0  0  0  0  0  0  0  0  0  0  0  0
  125.3760  148.7810  161.2010 C   0  0  0  0  0  0  0  0  0  0  0  0
  124.8800  152.5390  159.1660 C   0  0  0  0  0  0  0  0  0  0  0  0
  126.0780  152.5690  157.2400 C   0  0  0  0  0  0  0  0  0  0  0  0
  126.1200  153.9460  157.5360 C   0  0  0  0  0  0  0  0  0  0  0  0
  126.7280  151.9840  156.0320 C   0  0  0  0  0  0  0  0  0  0  0  0
  128.5930  150.9100  157.1780 C   0  0  0  0  0  0  0  0  0  0  0  0
  128.8760  149.4840  157.6710 C   0  0  0  0  0  0  0  0  0  0  0  0
  129.1090  148.5060  156.5200 C   0  0  0  0  0  0  0  0  0  0  0  0
  128.7400  149.0930  155.1670 C   0  0  0  0  0  0  0  0  0  0  0  0
  127.3890  149.7890  155.2610 C   0  0  0  0  0  0  0  0  0  0  0  0
  128.6940  147.9910  154.1210 C   0  0  0  0  0  0  0  0  0  0  0  0
  127.8040  148.9660  158.6290 C   0  0  0  0  0  0  0  0  0  0  0  0
  125.2470  154.2130  159.0120 S   0  0  0  0  0  0  0  0  0  0  0  0
  2  3  1  0  0  0  0
  3  4  1  0  0  0  0
  4  7  1  0  0  0  0
  2  9  1  0  0  0  0
  7 10  2  0  0  0  0
  1 11  1  0  0  0  0
 10 11  1  0  0  0  0
 11 12  2  0  0  0  0
  4 13  2  0  0  0  0
  9 13  1  0  0  0  0
 12 13  1  0  0  0  0
  1 14  1  0  0  0  0
  5 14  2  0  0  0  0
  5 15  1  0  0  0  0
 15 16  2  0  0  0  0
  6 17  2  0  0  0  0
  8 17  1  0  0  0  0
 15 17  1  0  0  0  0
  8 18  1  0  0  0  0
 18 19  1  0  0  0  0
 19 20  1  0  0  0  0
 20 21  1  0  0  0  0
  8 22  1  0  0  0  0
 21 22  1  0  0  0  0
 21 23  1  0  0  0  0
 19 24  1  0  0  0  0
 14 25  1  0  0  0  0
 16 25  1  0  0  0  0
M  END
$$$$
