7WE4
  PyMOL3.1          3D                             0

 25 27  0  0  0  0  0  0  0  0999 V2000
  130.8450  139.0960  131.4940 Cl  0  0  0  0  0  0  0  0  0  0  0  0
  136.0590  135.3430  129.1470 O   0  0  0  0  0  0  0  0  0  0  0  0
  138.4970  138.8360  126.2700 O   0  0  0  0  0  0  0  0  0  0  0  0
  142.8920  136.7850  126.4290 O   0  0  0  0  0  0  0  0  0  0  0  0
  138.3490  132.7970  128.7560 O   0  0  0  0  0  0  0  0  0  0  0  0
  139.1280  134.4800  127.9100 N   0  0  0  0  0  0  0  0  0  0  0  0
  134.8980  135.1770  129.6610 C   0  0  0  0  0  0  0  0  0  0  0  0
  139.5740  135.6790  127.3870 C   0  0  0  0  0  0  0  0  0  0  0  0
  136.6310  134.2440  128.9840 C   0  0  0  0  0  0  0  0  0  0  0  0
  133.8970  136.2000  130.0440 C   0  0  0  0  0  0  0  0  0  0  0  0
  134.6490  133.8950  129.9330 C   0  0  0  0  0  0  0  0  0  0  0  0
  135.7950  133.2780  129.4750 C   0  0  0  0  0  0  0  0  0  0  0  0
  138.0060  133.8810  128.5000 C   0  0  0  0  0  0  0  0  0  0  0  0
  140.9150  135.7080  127.1580 C   0  0  0  0  0  0  0  0  0  0  0  0
  138.7790  136.7170  127.1050 C   0  0  0  0  0  0  0  0  0  0  0  0
  139.3550  137.8210  126.5630 C   0  0  0  0  0  0  0  0  0  0  0  0
  141.5200  136.7930  126.6540 C   0  0  0  0  0  0  0  0  0  0  0  0
  140.7190  137.8690  126.3360 C   0  0  0  0  0  0  0  0  0  0  0  0
  134.2150  137.5160  130.0760 C   0  0  0  0  0  0  0  0  0  0  0  0
  132.7080  135.7650  130.5140 C   0  0  0  0  0  0  0  0  0  0  0  0
  133.2930  138.3990  130.5430 C   0  0  0  0  0  0  0  0  0  0  0  0
  131.7790  136.6440  130.9470 C   0  0  0  0  0  0  0  0  0  0  0  0
  132.0670  137.9610  130.9430 C   0  0  0  0  0  0  0  0  0  0  0  0
  139.0650  140.0470  126.5130 C   0  0  0  0  0  0  0  0  0  0  0  0
  143.7690  136.7970  127.5080 C   0  0  0  0  0  0  0  0  0  0  0  0
  1 23  1  0  0  0  0
  2  7  4  0  0  0  0
  2  9  4  0  0  0  0
  3 16  1  0  0  0  0
  4 25  1  0  0  0  0
  6  8  1  0  0  0  0
  7 11  4  0  0  0  0
  8 14  4  0  0  0  0
  9 12  4  0  0  0  0
  7 10  1  0  0  0  0
 10 19  4  0  0  0  0
 10 20  4  0  0  0  0
 11 12  4  0  0  0  0
  5 13  2  0  0  0  0
  6 13  1  0  0  0  0
  9 13  1  0  0  0  0
  8 15  4  0  0  0  0
 15 16  4  0  0  0  0
 16 18  4  0  0  0  0
  4 17  1  0  0  0  0
 14 17  4  0  0  0  0
 17 18  4  0  0  0  0
 20 22  4  0  0  0  0
 19 21  4  0  0  0  0
 21 23  4  0  0  0  0
 22 23  4  0  0  0  0
  3 24  1  0  0  0  0
M  END
$$$$
