7BY6
  PyMOL3.1          3D                             0

 42 47  0  0  0  0  0  0  0  0999 V2000
   23.4810    1.8800   24.4620 N   0  0  0  0  0  0  0  0  0  0  0  0
   26.9200    8.6390   24.1840 C   0  0  0  0  0  0  0  0  0  0  0  0
   26.5770    7.4770   23.5470 O   0  0  0  0  0  0  0  0  0  0  0  0
   25.8370    6.6750   24.3930 C   0  0  0  0  0  0  0  0  0  0  0  0
   25.3540    4.2240   24.1100 N   0  0  0  0  0  0  0  0  0  0  0  0
   25.1330    0.9120   22.6720 O   0  0  0  0  0  0  0  0  0  0  0  0
   25.2430    5.5950   23.5470 C   0  0  0  0  0  0  0  0  0  0  0  0
   22.7790   -0.0420   23.5000 N   0  0  0  0  0  0  0  0  0  0  0  0
   27.7360    1.7250   23.1510 O   0  0  0  0  0  0  0  0  0  0  0  0
   23.7070    5.4760   23.6810 C   0  0  0  0  0  0  0  0  0  0  0  0
   21.5130    1.7650   23.4810 O   0  0  0  0  0  0  0  0  0  0  0  0
   23.9590    3.9500   23.6720 C   0  0  0  0  0  0  0  0  0  0  0  0
   18.6480   -3.6680   23.3560 O   0  0  0  0  0  0  0  0  0  0  0  0
   23.3450    3.2150   24.7690 C   0  0  0  0  0  0  0  0  0  0  0  0
   24.5830    1.2250   24.9290 C   0  0  0  0  0  0  0  0  0  0  0  0
   25.6580    1.0650   23.9790 C   0  0  0  0  0  0  0  0  0  0  0  0
   26.6700    2.1670   23.9730 C   0  0  0  0  0  0  0  0  0  0  0  0
   26.2970    3.4630   23.3940 C   0  0  0  0  0  0  0  0  0  0  0  0
   22.5400    1.2290   23.7760 C   0  0  0  0  0  0  0  0  0  0  0  0
   21.7550   -0.9910   23.4190 C   0  0  0  0  0  0  0  0  0  0  0  0
   20.5890   -0.7130   24.0850 C   0  0  0  0  0  0  0  0  0  0  0  0
   19.5370   -1.5990   24.0360 C   0  0  0  0  0  0  0  0  0  0  0  0
   19.6640   -2.7680   23.3440 C   0  0  0  0  0  0  0  0  0  0  0  0
   18.9370   -5.0140   23.0380 C   0  0  0  0  0  0  0  0  0  0  0  0
   17.8700   -5.7170   22.3080 C   0  0  0  0  0  0  0  0  0  0  0  0
   19.1080   -5.3590   21.6240 C   0  0  0  0  0  0  0  0  0  0  0  0
   20.8130   -3.0560   22.6750 C   0  0  0  0  0  0  0  0  0  0  0  0
   21.8610   -2.1670   22.7080 C   0  0  0  0  0  0  0  0  0  0  0  0
   23.1990    6.0140   24.9620 C   0  0  0  0  0  0  0  0  0  0  0  0
   23.8140    5.6720   26.1320 C   0  0  0  0  0  0  0  0  0  0  0  0
   23.3460    6.1300   27.3400 C   0  0  0  0  0  0  0  0  0  0  0  0
   22.2370    6.9420   27.3910 C   0  0  0  0  0  0  0  0  0  0  0  0
   21.6150    7.2940   26.2190 C   0  0  0  0  0  0  0  0  0  0  0  0
   22.1010    6.8370   25.0180 C   0  0  0  0  0  0  0  0  0  0  0  0
   21.7410    7.4010   28.6390 C   0  0  0  0  0  0  0  0  0  0  0  0
   21.3010    7.7530   29.6810 C   0  0  0  0  0  0  0  0  0  0  0  0
   20.7200    8.1600   30.9190 C   0  0  0  0  0  0  0  0  0  0  0  0
   19.6090    8.9750   30.9350 C   0  0  0  0  0  0  0  0  0  0  0  0
   19.0450    9.3390   32.1300 C   0  0  0  0  0  0  0  0  0  0  0  0
   19.5590    8.8950   33.2950 C   0  0  0  0  0  0  0  0  0  0  0  0
   20.6460    8.0940   33.2940 C   0  0  0  0  0  0  0  0  0  0  0  0
   21.2390    7.7210   32.1160 C   0  0  0  0  0  0  0  0  0  0  0  0
  2  3  1  0  0  0  0
  3  4  1  0  0  0  0
  4  7  1  0  0  0  0
  5  7  1  0  0  0  0
  7 10  1  0  0  0  0
  5 12  1  0  0  0  0
 10 12  1  0  0  0  0
  1 14  1  0  0  0  0
 12 14  1  0  0  0  0
  1 15  1  0  0  0  0
  6 16  1  0  0  0  0
 15 16  1  0  0  0  0
  9 17  1  0  0  0  0
 16 17  1  0  0  0  0
  5 18  1  0  0  0  0
 17 18  1  0  0  0  0
  1 19  1  0  0  0  0
  8 19  1  0  0  0  0
 11 19  2  0  0  0  0
  8 20  1  0  0  0  0
 20 21  2  0  0  0  0
 21 22  1  0  0  0  0
 13 23  1  0  0  0  0
 22 23  2  0  0  0  0
 13 24  1  0  0  0  0
 24 25  1  0  0  0  0
 24 26  1  0  0  0  0
 25 26  1  0  0  0  0
 23 27  1  0  0  0  0
 20 28  1  0  0  0  0
 27 28  2  0  0  0  0
 10 29  1  0  0  0  0
 29 30  1  0  0  0  0
 30 31  2  0  0  0  0
 31 32  1  0  0  0  0
 32 33  2  0  0  0  0
 29 34  2  0  0  0  0
 33 34  1  0  0  0  0
 32 35  1  0  0  0  0
 35 36  3  0  0  0  0
 36 37  1  0  0  0  0
 37 38  2  0  0  0  0
 38 39  1  0  0  0  0
 39 40  2  0  0  0  0
 40 41  1  0  0  0  0
 37 42  1  0  0  0  0
 41 42  2  0  0  0  0
M  END
$$$$
