7SCF
  PyMOL3.1          3D                             0

 30 32  0  0  0  0  0  0  0  0999 V2000
   -4.8990  -15.4980   16.9650 O   0  0  0  0  0  0  0  0  0  0  0  0
   -5.6410  -15.5740   15.9480 C   0  0  0  0  0  0  0  0  0  0  0  0
   -5.0800  -16.1590   14.6470 C   0  0  0  0  0  0  0  0  0  0  0  0
   -6.0870  -16.9890   14.0290 N   0  0  0  0  0  0  0  0  0  0  0  0
   -6.9120  -16.6120   13.0210 C   0  0  0  0  0  0  0  0  0  0  0  0
   -7.7200  -17.6930   12.7330 C   0  0  0  0  0  0  0  0  0  0  0  0
   -7.3820  -18.7040   13.5620 C   0  0  0  0  0  0  0  0  0  0  0  0
   -6.3690  -18.2650   14.3700 C   0  0  0  0  0  0  0  0  0  0  0  0
   -4.6680  -15.0460   13.6920 C   0  0  0  0  0  0  0  0  0  0  0  0
   -3.5530  -14.2220   14.3260 C   0  0  0  0  0  0  0  0  0  0  0  0
   -2.6100  -14.6900   15.1870 C   0  0  0  0  0  0  0  0  0  0  0  0
   -1.8330  -13.6920   15.5240 N   0  0  0  0  0  0  0  0  0  0  0  0
   -2.2760  -12.5960   14.8970 C   0  0  0  0  0  0  0  0  0  0  0  0
   -3.3390  -12.9440   14.1600 N   0  0  0  0  0  0  0  0  0  0  0  0
   -6.8390  -15.1770   16.0150 O   0  0  0  0  0  0  0  0  0  0  0  0
  -30.5850   11.1000   20.6940 O   0  0  0  0  0  0  0  0  0  0  0  0
  -31.5160   11.9430   20.5470 C   0  0  0  0  0  0  0  0  0  0  0  0
  -32.3180   12.4570   21.7450 C   0  0  0  0  0  0  0  0  0  0  0  0
  -33.1370   11.4220   22.3290 N   0  0  0  0  0  0  0  0  0  0  0  0
  -32.7580   10.5760   23.3170 C   0  0  0  0  0  0  0  0  0  0  0  0
  -33.8280    9.7510   23.5990 C   0  0  0  0  0  0  0  0  0  0  0  0
  -34.8420   10.1030   22.7710 C   0  0  0  0  0  0  0  0  0  0  0  0
  -34.4120   11.1450   21.9890 C   0  0  0  0  0  0  0  0  0  0  0  0
  -31.4110   13.1000   22.7890 C   0  0  0  0  0  0  0  0  0  0  0  0
  -30.5260   14.1360   22.1010 C   0  0  0  0  0  0  0  0  0  0  0  0
  -30.9560   15.0860   21.2190 C   0  0  0  0  0  0  0  0  0  0  0  0
  -29.9110   15.7860   20.8410 N   0  0  0  0  0  0  0  0  0  0  0  0
  -28.8300   15.2850   21.4590 C   0  0  0  0  0  0  0  0  0  0  0  0
  -29.2250   14.2660   22.2430 N   0  0  0  0  0  0  0  0  0  0  0  0
  -31.7830   12.3900   19.4010 O   0  0  0  0  0  0  0  0  0  0  0  0
  1  2  1  0  0  0  0
  2  3  1  0  0  0  0
  3  4  1  0  0  0  0
  4  5  1  0  0  0  0
  5  6  2  0  0  0  0
  6  7  1  0  0  0  0
  4  8  1  0  0  0  0
  7  8  2  0  0  0  0
  3  9  1  0  0  0  0
  9 10  1  0  0  0  0
 10 11  2  0  0  0  0
 11 12  1  0  0  0  0
 12 13  2  0  0  0  0
 10 14  1  0  0  0  0
 13 14  1  0  0  0  0
  2 15  2  0  0  0  0
 16 17  1  0  0  0  0
 17 18  1  0  0  0  0
 18 19  1  0  0  0  0
 19 20  1  0  0  0  0
 20 21  2  0  0  0  0
 21 22  1  0  0  0  0
 19 23  1  0  0  0  0
 22 23  2  0  0  0  0
 18 24  1  0  0  0  0
 24 25  1  0  0  0  0
 25 26  2  0  0  0  0
 26 27  1  0  0  0  0
 27 28  2  0  0  0  0
 25 29  1  0  0  0  0
 28 29  1  0  0  0  0
 17 30  2  0  0  0  0
M  END
$$$$
