6YM4
  PyMOL3.1          3D                             0

 33 36  0  0  0  0  0  0  0  0999 V2000
    0.9940  -11.6960   41.8820 Cl  0  0  0  0  0  0  0  0  0  0  0  0
    5.8900   -9.4090   47.0980 C   0  0  0  0  0  0  0  0  0  0  0  0
    6.0870   -8.1810   46.4680 C   0  0  0  0  0  0  0  0  0  0  0  0
    5.6420   -8.0580   45.1600 C   0  0  0  0  0  0  0  0  0  0  0  0
    4.9990   -9.1070   44.5060 C   0  0  0  0  0  0  0  0  0  0  0  0
    4.7720  -10.3360   45.1400 C   0  0  0  0  0  0  0  0  0  0  0  0
    5.2100  -10.4690   46.4760 C   0  0  0  0  0  0  0  0  0  0  0  0
    4.0640  -11.4190   44.4100 C   0  0  0  0  0  0  0  0  0  0  0  0
    2.9770  -11.1410   43.5990 C   0  0  0  0  0  0  0  0  0  0  0  0
    2.3480  -12.1200   42.9070 C   0  0  0  0  0  0  0  0  0  0  0  0
    2.6820  -13.3940   43.0270 C   0  0  0  0  0  0  0  0  0  0  0  0
    3.7040  -13.7360   43.8860 C   0  0  0  0  0  0  0  0  0  0  0  0
    4.4400  -12.7390   44.5530 C   0  0  0  0  0  0  0  0  0  0  0  0
    6.7670   -7.0400   47.1550 C   0  0  0  0  0  0  0  0  0  0  0  0
    6.1800   -5.8500   47.2300 N   0  0  0  0  0  0  0  0  0  0  0  0
    6.7840   -4.7860   47.8300 C   0  0  0  0  0  0  0  0  0  0  0  0
    6.2180   -3.5340   47.8020 C   0  0  0  0  0  0  0  0  0  0  0  0
    6.8410   -2.5100   48.3000 N   0  0  0  0  0  0  0  0  0  0  0  0
    7.9940   -2.6110   48.9320 C   0  0  0  0  0  0  0  0  0  0  0  0
    8.6260   -3.8080   49.0890 C   0  0  0  0  0  0  0  0  0  0  0  0
    8.0170   -4.9130   48.4810 C   0  0  0  0  0  0  0  0  0  0  0  0
    8.6050   -6.1850   48.5290 C   0  0  0  0  0  0  0  0  0  0  0  0
    7.9780   -7.2230   47.8120 C   0  0  0  0  0  0  0  0  0  0  0  0
    8.5450   -8.4820   47.7290 C   0  0  0  0  0  0  0  0  0  0  0  0
    9.0090   -9.5070   47.6020 N   0  0  0  0  0  0  0  0  0  0  0  0
    9.7460   -6.2500   49.2490 N   0  0  0  0  0  0  0  0  0  0  0  0
   10.2050   -7.5200   49.8490 C   0  0  0  0  0  0  0  0  0  0  0  0
    9.2860   -8.4010   50.7160 C   0  0  0  0  0  0  0  0  0  0  0  0
    8.9620   -7.7710   52.0570 C   0  0  0  0  0  0  0  0  0  0  0  0
   11.3290   -7.1080   50.7660 C   0  0  0  0  0  0  0  0  0  0  0  0
   11.5660   -5.9740   51.1170 O   0  0  0  0  0  0  0  0  0  0  0  0
   12.1070   -8.0500   51.2100 N   0  0  0  0  0  0  0  0  0  0  0  0
    2.5770   -9.8240   43.4050 F   0  0  0  0  0  0  0  0  0  0  0  0
  2  3  1  0  0  0  0
  3  4  2  0  0  0  0
  4  5  1  0  0  0  0
  5  6  2  0  0  0  0
  2  7  2  0  0  0  0
  6  7  1  0  0  0  0
  6  8  1  0  0  0  0
  8  9  2  0  0  0  0
  1 10  1  0  0  0  0
  9 10  1  0  0  0  0
 10 11  2  0  0  0  0
 11 12  1  0  0  0  0
  8 13  1  0  0  0  0
 12 13  2  0  0  0  0
  3 14  1  0  0  0  0
 14 15  2  0  0  0  0
 15 16  1  0  0  0  0
 16 17  2  0  0  0  0
 17 18  1  0  0  0  0
 18 19  2  0  0  0  0
 19 20  1  0  0  0  0
 16 21  1  0  0  0  0
 20 21  2  0  0  0  0
 21 22  1  0  0  0  0
 14 23  1  0  0  0  0
 22 23  2  0  0  0  0
 23 24  1  0  0  0  0
 24 25  3  0  0  0  0
 22 26  1  0  0  0  0
 26 27  1  0  0  0  0
 27 28  1  0  0  0  0
 28 29  1  0  0  0  0
 27 30  1  0  0  0  0
 30 31  2  0  0  0  0
 30 32  1  0  0  0  0
  9 33  1  0  0  0  0
M  END
$$$$
