8R41
  PyMOL3.1          3D                             0

 25 27  0  0  0  0  0  0  0  0999 V2000
  -34.4560  -25.7100   40.3070 C   0  0  0  0  0  0  0  0  0  0  0  0
  -33.3490  -25.6170   39.4760 O   0  0  0  0  0  0  0  0  0  0  0  0
  -32.6600  -24.3610   39.5390 C   0  0  0  0  0  0  0  0  0  0  0  0
  -31.1810  -24.5610   39.1300 C   0  0  0  0  0  0  0  0  0  0  0  0
  -30.9840  -24.3020   37.6710 N   0  0  0  0  0  0  0  0  0  0  0  0
  -29.5230  -24.2840   37.3510 C   0  0  0  0  0  0  0  0  0  0  0  0
  -29.3970  -24.1230   35.8720 C   0  0  0  0  0  0  0  0  0  0  0  0
  -27.9900  -23.8220   35.3790 C   0  0  0  0  0  0  0  0  0  0  0  0
  -27.1200  -23.2520   36.3890 N   0  0  0  0  0  0  0  0  0  0  0  0
  -27.8290  -22.4270   37.3800 C   0  0  0  0  0  0  0  0  0  0  0  0
  -28.8110  -23.2540   38.1740 C   0  0  0  0  0  0  0  0  0  0  0  0
  -25.7990  -22.8720   35.9330 C   0  0  0  0  0  0  0  0  0  0  0  0
  -25.4720  -22.5830   34.6650 N   0  0  0  0  0  0  0  0  0  0  0  0
  -24.1730  -22.2590   34.4410 C   0  0  0  0  0  0  0  0  0  0  0  0
  -23.3440  -22.2720   35.5530 C   0  0  0  0  0  0  0  0  0  0  0  0
  -24.3630  -22.7250   36.8840 S   0  0  0  0  0  0  0  0  0  0  0  0
  -31.5550  -25.4100   36.9230 C   0  0  0  0  0  0  0  0  0  0  0  0
  -30.9420  -26.7370   37.3840 C   0  0  0  0  0  0  0  0  0  0  0  0
  -31.7210  -27.9710   36.8200 C   0  0  0  0  0  0  0  0  0  0  0  0
  -31.7320  -28.2130   35.4500 C   0  0  0  0  0  0  0  0  0  0  0  0
  -32.4250  -29.3070   34.9540 C   0  0  0  0  0  0  0  0  0  0  0  0
  -33.0950  -30.1410   35.8190 C   0  0  0  0  0  0  0  0  0  0  0  0
  -33.0820  -29.8980   37.1880 C   0  0  0  0  0  0  0  0  0  0  0  0
  -32.3910  -28.8020   37.6860 C   0  0  0  0  0  0  0  0  0  0  0  0
  -34.0490  -31.6370   35.1270 Br  0  0  0  0  0  0  0  0  0  0  0  0
  1  2  1  0  0  0  0
  2  3  1  0  0  0  0
  3  4  1  0  0  0  0
  4  5  1  0  0  0  0
  5  6  1  0  0  0  0
  6  7  1  0  0  0  0
  7  8  1  0  0  0  0
  8  9  1  0  0  0  0
  9 10  1  0  0  0  0
  6 11  1  0  0  0  0
 10 11  1  0  0  0  0
  9 12  1  0  0  0  0
 12 13  2  0  0  0  0
 13 14  1  0  0  0  0
 14 15  2  0  0  0  0
 12 16  1  0  0  0  0
 15 16  1  0  0  0  0
  5 17  1  0  0  0  0
 17 18  1  0  0  0  0
 18 19  1  0  0  0  0
 19 20  1  0  0  0  0
 20 21  2  0  0  0  0
 21 22  1  0  0  0  0
 22 23  2  0  0  0  0
 19 24  2  0  0  0  0
 23 24  1  0  0  0  0
 22 25  1  0  0  0  0
M  END
$$$$
