8IZ9
  PyMOL3.1          3D                             0

 58 58  0  0  0  0  0  0  0  0999 V2000
  126.5390  122.0700  129.6870 C   0  0  0  0  0  0  0  0  0  0  0  0
  126.0700  121.4910  130.6750 O   0  0  0  0  0  0  0  0  0  0  0  0
  127.6160  122.6640  129.7100 O   0  0  0  0  0  0  0  0  0  0  0  0
  125.7600  122.0280  128.3810 C   0  0  0  0  0  0  0  0  0  0  0  0
  126.5390  122.4100  127.1640 C   0  0  0  0  0  0  0  0  0  0  0  0
  126.6020  123.9100  126.9500 C   0  0  0  0  0  0  0  0  0  0  0  0
  127.5250  124.6570  127.8860 C   0  0  0  0  0  0  0  0  0  0  0  0
  127.6120  126.1350  127.6310 C   0  0  0  0  0  0  0  0  0  0  0  0
  127.6640  126.5350  126.1660 C   0  0  0  0  0  0  0  0  0  0  0  0
  127.1130  127.9090  125.8590 C   0  0  0  0  0  0  0  0  0  0  0  0
  128.0410  128.9010  126.5090 C   0  0  0  0  0  0  0  0  0  0  0  0
  128.6500  128.6950  127.5270 O   0  0  0  0  0  0  0  0  0  0  0  0
  128.0210  130.1580  125.6840 C   0  0  0  0  0  0  0  0  0  0  0  0
  126.8010  129.9540  124.7910 C   0  0  0  0  0  0  0  0  0  0  0  0
  126.7140  130.7870  123.6450 O   0  0  0  0  0  0  0  0  0  0  0  0
  127.0140  128.4740  124.4510 C   0  0  0  0  0  0  0  0  0  0  0  0
  125.9240  127.9760  123.5740 C   0  0  0  0  0  0  0  0  0  0  0  0
  126.0050  126.9930  122.7400 C   0  0  0  0  0  0  0  0  0  0  0  0
  125.7970  125.5650  123.1200 C   0  0  0  0  0  0  0  0  0  0  0  0
  125.8180  125.4660  124.5370 O   0  0  0  0  0  0  0  0  0  0  0  0
  124.4890  124.9590  122.6520 C   0  0  0  0  0  0  0  0  0  0  0  0
  124.6810  123.7840  121.7050 C   0  0  0  0  0  0  0  0  0  0  0  0
  124.9320  124.1350  120.2670 C   0  0  0  0  0  0  0  0  0  0  0  0
  126.1750  124.9300  120.0160 C   0  0  0  0  0  0  0  0  0  0  0  0
  126.1730  125.6480  118.6950 C   0  0  0  0  0  0  0  0  0  0  0  0
  126.6730  125.1300  118.0410 H   0  0  0  0  0  0  0  0  0  0  0  0
  126.5870  126.5230  118.8000 H   0  0  0  0  0  0  0  0  0  0  0  0
  125.2570  125.7590  118.3870 H   0  0  0  0  0  0  0  0  0  0  0  0
  126.2820  125.5880  120.7350 H   0  0  0  0  0  0  0  0  0  0  0  0
  126.9480  124.3240  120.0480 H   0  0  0  0  0  0  0  0  0  0  0  0
  124.9820  123.3040  119.7480 H   0  0  0  0  0  0  0  0  0  0  0  0
  124.1630  124.6450  119.9330 H   0  0  0  0  0  0  0  0  0  0  0  0
  125.4370  123.2490  122.0290 H   0  0  0  0  0  0  0  0  0  0  0  0
  123.8810  123.2190  121.7520 H   0  0  0  0  0  0  0  0  0  0  0  0
  123.9800  124.6570  123.4330 H   0  0  0  0  0  0  0  0  0  0  0  0
  123.9610  125.6480  122.2000 H   0  0  0  0  0  0  0  0  0  0  0  0
  126.5430  125.0240  122.7500 H   0  0  0  0  0  0  0  0  0  0  0  0
  126.4530  124.9570  124.7610 H   0  0  0  0  0  0  0  0  0  0  0  0
  126.2080  127.1910  121.8400 H   0  0  0  0  0  0  0  0  0  0  0  0
  125.0910  128.4250  123.6340 H   0  0  0  0  0  0  0  0  0  0  0  0
  127.8850  128.3750  123.9910 H   0  0  0  0  0  0  0  0  0  0  0  0
  125.9800  130.0540  125.3260 H   0  0  0  0  0  0  0  0  0  0  0  0
  127.4720  130.8470  123.2680 H   0  0  0  0  0  0  0  0  0  0  0  0
  127.9200  130.9490  126.2520 H   0  0  0  0  0  0  0  0  0  0  0  0
  128.8400  130.2420  125.1560 H   0  0  0  0  0  0  0  0  0  0  0  0
  126.2310  127.9900  126.2990 H   0  0  0  0  0  0  0  0  0  0  0  0
  128.5990  126.4990  125.8710 H   0  0  0  0  0  0  0  0  0  0  0  0
  127.1640  125.8760  125.6410 H   0  0  0  0  0  0  0  0  0  0  0  0
  126.8360  126.5710  128.0410 H   0  0  0  0  0  0  0  0  0  0  0  0
  128.4160  126.4830  128.0730 H   0  0  0  0  0  0  0  0  0  0  0  0
  127.2180  124.5160  128.8070 H   0  0  0  0  0  0  0  0  0  0  0  0
  128.4240  124.2730  127.8100 H   0  0  0  0  0  0  0  0  0  0  0  0
  126.8900  124.0800  126.0280 H   0  0  0  0  0  0  0  0  0  0  0  0
  125.6970  124.2760  127.0490 H   0  0  0  0  0  0  0  0  0  0  0  0
  127.4540  122.0640  127.2440 H   0  0  0  0  0  0  0  0  0  0  0  0
  126.1310  121.9950  126.3760 H   0  0  0  0  0  0  0  0  0  0  0  0
  125.4130  121.1180  128.2590 H   0  0  0  0  0  0  0  0  0  0  0  0
  124.9890  122.6280  128.4630 H   0  0  0  0  0  0  0  0  0  0  0  0
  1  2  1  0  0  0  0
  1  3  2  0  0  0  0
  1  4  1  0  0  0  0
  4  5  1  0  0  0  0
  5  6  1  0  0  0  0
  6  7  1  0  0  0  0
  7  8  1  0  0  0  0
  8  9  1  0  0  0  0
  9 10  1  0  0  0  0
 10 11  1  0  0  0  0
 11 12  2  0  0  0  0
 11 13  1  0  0  0  0
 13 14  1  0  0  0  0
 14 15  1  0  0  0  0
 10 16  1  0  0  0  0
 14 16  1  0  0  0  0
 16 17  1  0  0  0  0
 17 18  2  0  0  0  0
 18 19  1  0  0  0  0
 19 20  1  0  0  0  0
 19 21  1  0  0  0  0
 21 22  1  0  0  0  0
 22 23  1  0  0  0  0
 23 24  1  0  0  0  0
 24 25  1  0  0  0  0
 25 26  1  0  0  0  0
 25 27  1  0  0  0  0
 25 28  1  0  0  0  0
 24 29  1  0  0  0  0
 24 30  1  0  0  0  0
 23 31  1  0  0  0  0
 23 32  1  0  0  0  0
 22 33  1  0  0  0  0
 22 34  1  0  0  0  0
 21 35  1  0  0  0  0
 21 36  1  0  0  0  0
 19 37  1  0  0  0  0
 20 38  1  0  0  0  0
 18 39  1  0  0  0  0
 17 40  1  0  0  0  0
 16 41  1  0  0  0  0
 14 42  1  0  0  0  0
 15 43  1  0  0  0  0
 13 44  1  0  0  0  0
 13 45  1  0  0  0  0
 10 46  1  0  0  0  0
  9 47  1  0  0  0  0
  9 48  1  0  0  0  0
  8 49  1  0  0  0  0
  8 50  1  0  0  0  0
  7 51  1  0  0  0  0
  7 52  1  0  0  0  0
  6 53  1  0  0  0  0
  6 54  1  0  0  0  0
  5 55  1  0  0  0  0
  5 56  1  0  0  0  0
  4 57  1  0  0  0  0
  4 58  1  0  0  0  0
M  END
$$$$
