8F0P
  PyMOL3.1          3D                             0

 37 41  0  0  0  0  0  0  0  0999 V2000
  131.6160  178.1440  193.1620 C   0  0  0  0  0  0  0  0  0  0  0  0
  131.4060  176.7620  193.6960 N   0  0  0  0  0  0  0  0  0  0  0  0
  137.8760  174.5700  187.6990 O   0  0  0  0  0  0  0  0  0  0  0  0
  136.8220  175.5230  187.3930 S   0  0  0  0  0  0  0  0  0  0  0  0
  131.0340  176.7870  195.1460 C   0  0  0  0  0  0  0  0  0  0  0  0
  132.5230  175.1450  191.5130 N   0  0  0  0  0  0  0  0  0  0  0  0
  137.1840  176.9260  187.2680 O   0  0  0  0  0  0  0  0  0  0  0  0
  135.9240  172.3270  186.5630 S   0  0  0  0  0  0  0  0  0  0  0  0
  130.5220  175.8360  192.8660 C   0  0  0  0  0  0  0  0  0  0  0  0
  136.1150  175.0740  185.9630 N   0  0  0  0  0  0  0  0  0  0  0  0
  134.2350  168.1420  184.1790 O   0  0  0  0  0  0  0  0  0  0  0  0
  129.0720  176.3350  192.8570 C   0  0  0  0  0  0  0  0  0  0  0  0
  135.2140  173.5760  184.4380 N   0  0  0  0  0  0  0  0  0  0  0  0
  128.3140  175.9590  191.5820 C   0  0  0  0  0  0  0  0  0  0  0  0
  128.7920  174.6370  190.9940 C   0  0  0  0  0  0  0  0  0  0  0  0
  130.2770  174.6380  190.6200 C   0  0  0  0  0  0  0  0  0  0  0  0
  131.1210  175.6280  191.4410 C   0  0  0  0  0  0  0  0  0  0  0  0
  133.4940  175.2730  190.5320 C   0  0  0  0  0  0  0  0  0  0  0  0
  133.4590  176.2300  189.5120 C   0  0  0  0  0  0  0  0  0  0  0  0
  134.4730  176.3140  188.5500 C   0  0  0  0  0  0  0  0  0  0  0  0
  135.5470  175.4230  188.5930 C   0  0  0  0  0  0  0  0  0  0  0  0
  135.6080  174.4770  189.5950 C   0  0  0  0  0  0  0  0  0  0  0  0
  134.5920  174.3990  190.5480 C   0  0  0  0  0  0  0  0  0  0  0  0
  135.7550  173.7320  185.6220 C   0  0  0  0  0  0  0  0  0  0  0  0
  134.9130  172.2430  184.2340 C   0  0  0  0  0  0  0  0  0  0  0  0
  135.2330  171.4000  185.2970 C   0  0  0  0  0  0  0  0  0  0  0  0
  134.9870  170.0230  185.2430 C   0  0  0  0  0  0  0  0  0  0  0  0
  134.4070  169.4920  184.0940 C   0  0  0  0  0  0  0  0  0  0  0  0
  133.8390  167.4470  182.9990 C   0  0  0  0  0  0  0  0  0  0  0  0
  134.0240  165.9600  183.2740 C   0  0  0  0  0  0  0  0  0  0  0  0
  133.5380  165.5140  184.6500 C   0  0  0  0  0  0  0  0  0  0  0  0
  133.4230  163.9980  184.5060 C   0  0  0  0  0  0  0  0  0  0  0  0
  133.2260  163.7160  183.0170 C   0  0  0  0  0  0  0  0  0  0  0  0
  133.2310  165.0720  182.3260 C   0  0  0  0  0  0  0  0  0  0  0  0
  134.0830  170.3130  183.0180 C   0  0  0  0  0  0  0  0  0  0  0  0
  134.3280  171.6930  183.0800 C   0  0  0  0  0  0  0  0  0  0  0  0
  136.6210  173.6060  189.6710 F   0  0  0  0  0  0  0  0  0  0  0  0
  1  2  1  0  0  0  0
  3  4  2  0  0  0  0
  2  5  1  0  0  0  0
  4  7  2  0  0  0  0
  2  9  1  0  0  0  0
  9 12  1  0  0  0  0
  9 17  1  0  0  0  0
  4 10  1  0  0  0  0
 12 14  1  0  0  0  0
 14 15  1  0  0  0  0
 15 16  1  0  0  0  0
 16 17  1  0  0  0  0
  6 17  1  0  0  0  0
  6 18  1  0  0  0  0
 18 19  4  0  0  0  0
 19 20  4  0  0  0  0
 20 21  4  0  0  0  0
  4 21  1  0  0  0  0
 21 22  4  0  0  0  0
 22 37  1  0  0  0  0
 18 23  4  0  0  0  0
 22 23  4  0  0  0  0
  8 24  4  0  0  0  0
 10 24  1  0  0  0  0
 13 24  4  0  0  0  0
 13 25  4  0  0  0  0
 25 26  4  0  0  0  0
 25 36  4  0  0  0  0
  8 26  4  0  0  0  0
 26 27  4  0  0  0  0
 27 28  4  0  0  0  0
 11 28  1  0  0  0  0
 28 35  4  0  0  0  0
 11 29  1  0  0  0  0
 29 30  1  0  0  0  0
 30 31  1  0  0  0  0
 30 34  1  0  0  0  0
 31 32  1  0  0  0  0
 32 33  1  0  0  0  0
 33 34  1  0  0  0  0
 35 36  4  0  0  0  0
M  END
$$$$
