8TA2
  PyMOL3.1          3D                             0

 39 41  0  0  0  0  0  0  0  0999 V2000
  112.8590  122.0780   93.5680 Cl  0  0  0  0  0  0  0  0  0  0  0  0
  110.7690  123.7690   98.3540 Cl  0  0  0  0  0  0  0  0  0  0  0  0
  106.9700  122.6160   93.6770 O   0  0  0  0  0  0  0  0  0  0  0  0
  108.1210  122.6680   94.0720 C   0  0  0  0  0  0  0  0  0  0  0  0
  108.8490  121.6910   94.0770 O   0  0  0  0  0  0  0  0  0  0  0  0
  108.6160  123.9600   94.6030 C   0  0  0  0  0  0  0  0  0  0  0  0
  107.8260  125.0770   94.5340 C   0  0  0  0  0  0  0  0  0  0  0  0
  108.3010  126.2620   95.0000 C   0  0  0  0  0  0  0  0  0  0  0  0
  109.5720  126.3100   95.5220 C   0  0  0  0  0  0  0  0  0  0  0  0
  110.3220  125.2540   95.6040 N   0  0  0  0  0  0  0  0  0  0  0  0
  109.8610  124.1120   95.1950 C   0  0  0  0  0  0  0  0  0  0  0  0
  110.7140  123.0620   95.3770 N   0  0  0  0  0  0  0  0  0  0  0  0
  111.9350  122.8910   96.0240 C   0  0  0  0  0  0  0  0  0  0  0  0
  113.0150  122.3920   95.2800 C   0  0  0  0  0  0  0  0  0  0  0  0
  114.2620  122.2020   95.8750 C   0  0  0  0  0  0  0  0  0  0  0  0
  114.4480  122.5380   97.2120 C   0  0  0  0  0  0  0  0  0  0  0  0
  113.4000  123.0320   97.9920 C   0  0  0  0  0  0  0  0  0  0  0  0
  113.7620  123.5370   99.2340 O   0  0  0  0  0  0  0  0  0  0  0  0
  113.1320  123.3680  100.5310 C   0  0  0  0  0  0  0  0  0  0  0  0
  113.3530  121.9790  101.1260 C   0  0  0  0  0  0  0  0  0  0  0  0
  112.4900  121.5290  102.1390 C   0  0  0  0  0  0  0  0  0  0  0  0
  112.6750  120.2640  102.7140 C   0  0  0  0  0  0  0  0  0  0  0  0
  113.7110  119.4300  102.2780 C   0  0  0  0  0  0  0  0  0  0  0  0
  114.5860  119.8800  101.2870 C   0  0  0  0  0  0  0  0  0  0  0  0
  114.4210  121.1560  100.7280 C   0  0  0  0  0  0  0  0  0  0  0  0
  112.1210  123.1920   97.4020 C   0  0  0  0  0  0  0  0  0  0  0  0
  106.8330  125.0360   94.0940 H   0  0  0  0  0  0  0  0  0  0  0  0
  107.7110  127.1700   94.9450 H   0  0  0  0  0  0  0  0  0  0  0  0
  109.9820  127.2450   95.8780 H   0  0  0  0  0  0  0  0  0  0  0  0
  110.4010  122.2750   94.8240 H   0  0  0  0  0  0  0  0  0  0  0  0
  115.0950  121.8320   95.2840 H   0  0  0  0  0  0  0  0  0  0  0  0
  113.5800  124.0900  101.2250 H   0  0  0  0  0  0  0  0  0  0  0  0
  112.0590  123.5930  100.5060 H   0  0  0  0  0  0  0  0  0  0  0  0
  111.6760  122.1590  102.4820 H   0  0  0  0  0  0  0  0  0  0  0  0
  112.0070  119.9260  103.5000 H   0  0  0  0  0  0  0  0  0  0  0  0
  113.8440  118.4480  102.7210 H   0  0  0  0  0  0  0  0  0  0  0  0
  115.3970  119.2400  100.9530 H   0  0  0  0  0  0  0  0  0  0  0  0
  115.1210  121.4990   99.9720 H   0  0  0  0  0  0  0  0  0  0  0  0
  115.4360  122.4430   97.6520 H   0  0  0  0  0  0  0  0  0  0  0  0
  3  4  2  0  0  0  0
  4  5  1  0  0  0  0
  4  6  1  0  0  0  0
  6  7  1  0  0  0  0
  7  8  2  0  0  0  0
  8  9  1  0  0  0  0
  9 10  2  0  0  0  0
  6 11  2  0  0  0  0
 10 11  1  0  0  0  0
 11 12  1  0  0  0  0
 12 13  1  0  0  0  0
  1 14  1  0  0  0  0
 13 14  1  0  0  0  0
 14 15  2  0  0  0  0
 15 16  1  0  0  0  0
 16 17  2  0  0  0  0
 17 18  1  0  0  0  0
 18 19  1  0  0  0  0
 19 20  1  0  0  0  0
 20 21  2  0  0  0  0
 21 22  1  0  0  0  0
 22 23  2  0  0  0  0
 23 24  1  0  0  0  0
 20 25  1  0  0  0  0
 24 25  2  0  0  0  0
  2 26  1  0  0  0  0
 13 26  2  0  0  0  0
 17 26  1  0  0  0  0
  7 27  1  0  0  0  0
  8 28  1  0  0  0  0
  9 29  1  0  0  0  0
 12 30  1  0  0  0  0
 15 31  1  0  0  0  0
 19 32  1  0  0  0  0
 19 33  1  0  0  0  0
 21 34  1  0  0  0  0
 22 35  1  0  0  0  0
 23 36  1  0  0  0  0
 24 37  1  0  0  0  0
 25 38  1  0  0  0  0
 16 39  1  0  0  0  0
M  END
$$$$
