7X5N
  PyMOL3.1          3D                             0

 60 66  0  0  0  0  0  0  0  0999 V2000
   87.0834   88.8397   45.1823 C   0  0  0  0  0  0  0  0  0  0  0  0
   87.3942   87.5132   44.4842 C   0  0  0  0  0  0  0  0  0  0  0  0
   88.6442   86.9382   44.6005 C   0  0  0  0  0  0  0  0  0  0  0  0
   88.9071   85.7267   43.9804 C   0  0  0  0  0  0  0  0  0  0  0  0
   90.3184   85.1559   44.0964 C   0  0  0  0  0  0  0  0  0  0  0  0
   91.0414   85.3484   45.1771 C   0  0  0  0  0  0  0  0  0  0  0  0
   92.4651   84.8038   45.2469 C   0  0  0  0  0  0  0  0  0  0  0  0
   92.9778   84.1611   44.2224 C   0  0  0  0  0  0  0  0  0  0  0  0
   92.1539   83.9668   42.9496 C   0  0  0  0  0  0  0  0  0  0  0  0
   90.9253   84.4378   42.8895 C   0  0  0  0  0  0  0  0  0  0  0  0
   87.9283   85.0907   43.2299 C   0  0  0  0  0  0  0  0  0  0  0  0
   86.6638   85.6605   43.1186 C   0  0  0  0  0  0  0  0  0  0  0  0
   85.6052   84.9830   42.2882 C   0  0  0  0  0  0  0  0  0  0  0  0
   85.6599   83.4269   42.4819 C   0  0  0  0  0  0  0  0  0  0  0  0
   85.7286   82.5724   43.4935 C   0  0  0  0  0  0  0  0  0  0  0  0
   85.7516   82.9102   44.9899 C   0  0  0  0  0  0  0  0  0  0  0  0
   85.6825   82.5887   41.2462 C   0  0  0  0  0  0  0  0  0  0  0  0
   85.6387   84.3175   39.6884 C   0  0  0  0  0  0  0  0  0  0  0  0
   85.9956   85.2578   40.8049 C   0  0  0  0  0  0  0  0  0  0  0  0
   86.6033   86.5976   40.4298 C   0  0  0  0  0  0  0  0  0  0  0  0
   85.7746   81.3220   43.0858 N   0  0  0  0  0  0  0  0  0  0  0  0
   85.7475   81.2371   41.7125 N   0  0  0  0  0  0  0  0  0  0  0  0
   86.2088   84.6435   38.3755 N   0  0  0  0  0  0  0  0  0  0  0  0
   87.0983   87.5777   40.1800 N   0  0  0  0  0  0  0  0  0  0  0  0
   88.1245   89.1474   46.0593 O   0  0  0  0  0  0  0  0  0  0  0  0
   85.6385   83.0145   39.9582 O   0  0  0  0  0  0  0  0  0  0  0  0
   84.2166   85.6099   42.5335 C   0  0  0  0  0  0  0  0  0  0  0  0
   83.5733   85.2785   43.8893 C   0  0  0  0  0  0  0  0  0  0  0  0
   83.2006   85.2505   41.4536 C   0  0  0  0  0  0  0  0  0  0  0  0
   86.4182   86.8794   43.7416 C   0  0  0  0  0  0  0  0  0  0  0  0
   79.1917   47.2039   53.4102 C   0  0  0  0  0  0  0  0  0  0  0  0
   80.4888   48.0253   53.3871 C   0  0  0  0  0  0  0  0  0  0  0  0
   81.3726   48.0296   52.3140 C   0  0  0  0  0  0  0  0  0  0  0  0
   82.5088   48.8321   52.3705 C   0  0  0  0  0  0  0  0  0  0  0  0
   83.5131   48.8534   51.2171 C   0  0  0  0  0  0  0  0  0  0  0  0
   83.1228   48.6934   49.9779 C   0  0  0  0  0  0  0  0  0  0  0  0
   84.1581   48.7053   48.8539 C   0  0  0  0  0  0  0  0  0  0  0  0
   85.4355   48.8716   49.1206 C   0  0  0  0  0  0  0  0  0  0  0  0
   85.8872   49.0504   50.5626 C   0  0  0  0  0  0  0  0  0  0  0  0
   84.9910   49.0442   51.5260 C   0  0  0  0  0  0  0  0  0  0  0  0
   82.7801   49.6073   53.4912 C   0  0  0  0  0  0  0  0  0  0  0  0
   81.8992   49.6067   54.5611 C   0  0  0  0  0  0  0  0  0  0  0  0
   82.2080   50.4420   55.7826 C   0  0  0  0  0  0  0  0  0  0  0  0
   82.7710   51.8526   55.3875 C   0  0  0  0  0  0  0  0  0  0  0  0
   82.4720   52.8273   54.5358 C   0  0  0  0  0  0  0  0  0  0  0  0
   81.3040   52.8767   53.5401 C   0  0  0  0  0  0  0  0  0  0  0  0
   84.0042   52.3040   56.1025 C   0  0  0  0  0  0  0  0  0  0  0  0
   84.5301   50.3210   57.0768 C   0  0  0  0  0  0  0  0  0  0  0  0
   83.3067   49.6747   56.5664 C   0  0  0  0  0  0  0  0  0  0  0  0
   83.2494   48.1573   56.5784 C   0  0  0  0  0  0  0  0  0  0  0  0
   83.3197   53.8291   54.6052 N   0  0  0  0  0  0  0  0  0  0  0  0
   84.3049   53.5775   55.5374 N   0  0  0  0  0  0  0  0  0  0  0  0
   85.2686   49.6386   58.1177 N   0  0  0  0  0  0  0  0  0  0  0  0
   83.1710   47.0369   56.6511 N   0  0  0  0  0  0  0  0  0  0  0  0
   79.1604   46.2422   52.4088 O   0  0  0  0  0  0  0  0  0  0  0  0
   84.6692   51.6267   57.0609 O   0  0  0  0  0  0  0  0  0  0  0  0
   81.0006   50.5485   56.7490 C   0  0  0  0  0  0  0  0  0  0  0  0
   79.7882   51.3282   56.2158 C   0  0  0  0  0  0  0  0  0  0  0  0
   81.4275   51.1847   58.0811 C   0  0  0  0  0  0  0  0  0  0  0  0
   80.7706   48.7995   54.4980 C   0  0  0  0  0  0  0  0  0  0  0  0
  1  2  1  0  0  0  0
  2  3  1  0  0  0  0
  3  4  2  0  0  0  0
  4  5  1  0  0  0  0
  5  6  1  0  0  0  0
  6  7  2  0  0  0  0
  7  8  1  0  0  0  0
  8  9  2  0  0  0  0
  5 10  2  0  0  0  0
  9 10  1  0  0  0  0
  4 11  1  0  0  0  0
 11 12  2  0  0  0  0
 12 13  1  0  0  0  0
 13 14  1  0  0  0  0
 14 15  1  0  0  0  0
 15 16  1  0  0  0  0
 14 17  2  0  0  0  0
 13 19  1  0  0  0  0
 18 19  2  0  0  0  0
 19 20  1  0  0  0  0
 15 21  2  0  0  0  0
 17 22  1  0  0  0  0
 21 22  1  0  0  0  0
 18 23  1  0  0  0  0
 20 24  3  0  0  0  0
  1 25  1  0  0  0  0
 17 26  1  0  0  0  0
 18 26  1  0  0  0  0
 13 27  1  0  0  0  0
 27 28  1  0  0  0  0
 27 29  1  0  0  0  0
  2 30  2  0  0  0  0
 12 30  1  0  0  0  0
 31 32  1  0  0  0  0
 32 33  1  0  0  0  0
 33 34  2  0  0  0  0
 34 35  1  0  0  0  0
 35 36  1  0  0  0  0
 36 37  2  0  0  0  0
 37 38  1  0  0  0  0
 38 39  2  0  0  0  0
 35 40  2  0  0  0  0
 39 40  1  0  0  0  0
 34 41  1  0  0  0  0
 41 42  2  0  0  0  0
 42 43  1  0  0  0  0
 43 44  1  0  0  0  0
 44 45  1  0  0  0  0
 45 46  1  0  0  0  0
 44 47  2  0  0  0  0
 43 49  1  0  0  0  0
 48 49  2  0  0  0  0
 49 50  1  0  0  0  0
 45 51  2  0  0  0  0
 47 52  1  0  0  0  0
 51 52  1  0  0  0  0
 48 53  1  0  0  0  0
 50 54  3  0  0  0  0
 31 55  1  0  0  0  0
 47 56  1  0  0  0  0
 48 56  1  0  0  0  0
 43 57  1  0  0  0  0
 57 58  1  0  0  0  0
 57 59  1  0  0  0  0
 32 60  2  0  0  0  0
 42 60  1  0  0  0  0
M  END
$$$$
