9EXY
  PyMOL3.1          3D                             0

 31 35  0  0  0  0  0  0  0  0999 V2000
  -19.1060   14.7610   -6.2650 N   0  0  0  0  0  0  0  0  0  0  0  0
  -22.6220   13.9120   -6.5670 C   0  0  0  0  0  0  0  0  0  0  0  0
  -20.5030   14.9900   -6.1900 O   0  0  0  0  0  0  0  0  0  0  0  0
  -21.1390   13.8720   -6.5800 C   0  0  0  0  0  0  0  0  0  0  0  0
  -16.1420    9.9360  -10.0520 N   0  0  0  0  0  0  0  0  0  0  0  0
  -21.7710    5.5240   -8.0550 O   0  0  0  0  0  0  0  0  0  0  0  0
  -18.9720   13.5290   -6.6850 C   0  0  0  0  0  0  0  0  0  0  0  0
  -21.4050    7.6680   -8.6540 N   0  0  0  0  0  0  0  0  0  0  0  0
  -20.3210    8.1460   -6.1220 O   0  0  0  0  0  0  0  0  0  0  0  0
  -17.6470   12.9230   -6.9050 C   0  0  0  0  0  0  0  0  0  0  0  0
  -17.3610   12.4630   -8.1990 C   0  0  0  0  0  0  0  0  0  0  0  0
  -16.1400   11.8770   -8.5100 C   0  0  0  0  0  0  0  0  0  0  0  0
  -15.8520   11.3770   -9.9070 C   0  0  0  0  0  0  0  0  0  0  0  0
  -17.5920    9.6690  -10.0370 C   0  0  0  0  0  0  0  0  0  0  0  0
  -17.8760    8.1630  -10.0510 C   0  0  0  0  0  0  0  0  0  0  0  0
  -17.2040    7.4830  -11.2470 C   0  0  0  0  0  0  0  0  0  0  0  0
  -15.7320    7.8770  -11.3500 C   0  0  0  0  0  0  0  0  0  0  0  0
  -15.5690    9.3940  -11.2920 C   0  0  0  0  0  0  0  0  0  0  0  0
  -15.1990   11.7610   -7.5050 C   0  0  0  0  0  0  0  0  0  0  0  0
  -15.4650   12.2100   -6.2270 C   0  0  0  0  0  0  0  0  0  0  0  0
  -16.6840   12.7970   -5.8910 C   0  0  0  0  0  0  0  0  0  0  0  0
  -16.9060   13.2670   -4.4750 C   0  0  0  0  0  0  0  0  0  0  0  0
  -20.2260   12.9180   -6.9100 C   0  0  0  0  0  0  0  0  0  0  0  0
  -20.5280   11.5510   -7.3820 C   0  0  0  0  0  0  0  0  0  0  0  0
  -21.0640   11.3400   -8.6520 C   0  0  0  0  0  0  0  0  0  0  0  0
  -21.3580   10.0620   -9.0960 C   0  0  0  0  0  0  0  0  0  0  0  0
  -21.1080    8.9770   -8.2670 C   0  0  0  0  0  0  0  0  0  0  0  0
  -21.5000    6.6790   -7.7390 C   0  0  0  0  0  0  0  0  0  0  0  0
  -21.2540    7.0530   -6.2860 C   0  0  0  0  0  0  0  0  0  0  0  0
  -20.5780    9.1910   -6.9800 C   0  0  0  0  0  0  0  0  0  0  0  0
  -20.2840   10.4650   -6.5440 C   0  0  0  0  0  0  0  0  0  0  0  0
  1  3  1  0  0  0  0
  2  4  1  0  0  0  0
  3  4  1  0  0  0  0
  1  7  2  0  0  0  0
  7 10  1  0  0  0  0
 10 11  2  0  0  0  0
 11 12  1  0  0  0  0
  5 13  1  0  0  0  0
 12 13  1  0  0  0  0
  5 14  1  0  0  0  0
 14 15  1  0  0  0  0
 15 16  1  0  0  0  0
 16 17  1  0  0  0  0
  5 18  1  0  0  0  0
 17 18  1  0  0  0  0
 12 19  2  0  0  0  0
 19 20  1  0  0  0  0
 10 21  1  0  0  0  0
 20 21  2  0  0  0  0
 21 22  1  0  0  0  0
  4 23  2  0  0  0  0
  7 23  1  0  0  0  0
 23 24  1  0  0  0  0
 24 25  2  0  0  0  0
 25 26  1  0  0  0  0
  8 27  1  0  0  0  0
 26 27  2  0  0  0  0
  6 28  2  0  0  0  0
  8 28  1  0  0  0  0
  9 29  1  0  0  0  0
 28 29  1  0  0  0  0
  9 30  1  0  0  0  0
 27 30  1  0  0  0  0
 24 31  1  0  0  0  0
 30 31  2  0  0  0  0
M  END
$$$$
