7E32
  PyMOL3.1          3D                             0

 13 14  0  0  0  0  0  0  0  0999 V2000
   96.9960  119.2220  113.6390 C   0  0  0  0  0  0  0  0  0  0  0  0
   98.0720  120.0340  114.3430 C   0  0  0  0  0  0  0  0  0  0  0  0
   99.1320  120.5350  113.4100 C   0  0  0  0  0  0  0  0  0  0  0  0
   99.6510  119.9000  112.3190 C   0  0  0  0  0  0  0  0  0  0  0  0
   99.8090  121.8020  113.4930 C   0  0  0  0  0  0  0  0  0  0  0  0
  100.7180  121.8560  112.4220 C   0  0  0  0  0  0  0  0  0  0  0  0
   99.7270  122.8910  114.3750 C   0  0  0  0  0  0  0  0  0  0  0  0
  100.6020  120.6840  111.7220 N   0  0  0  0  0  0  0  0  0  0  0  0
  101.5400  122.9560  112.2090 C   0  0  0  0  0  0  0  0  0  0  0  0
  100.5370  123.9710  114.1630 C   0  0  0  0  0  0  0  0  0  0  0  0
   96.5080  118.1360  114.4910 N   0  0  0  0  0  0  0  0  0  0  0  0
  101.4400  124.0070  113.0870 C   0  0  0  0  0  0  0  0  0  0  0  0
  100.4930  125.0510  114.9930 O   0  0  0  0  0  0  0  0  0  0  0  0
  1 11  1  0  0  0  0
  1  2  1  0  0  0  0
  2  3  1  0  0  0  0
  3  5  4  0  0  0  0
  3  4  4  0  0  0  0
  5  7  4  0  0  0  0
  5  6  4  0  0  0  0
  6  8  4  0  0  0  0
  4  8  4  0  0  0  0
  6  9  4  0  0  0  0
  7 10  4  0  0  0  0
 10 12  4  0  0  0  0
  9 12  4  0  0  0  0
 10 13  1  0  0  0  0
M  END
$$$$
