7DXG
  PyMOL3.1          3D                             0

104116  0  0  0  0  0  0  0  0999 V2000
  110.3990  154.4630  154.9250 N   0  0  0  0  0  0  0  0  0  0  0  0
  111.4700  155.3900  154.5180 C   0  0  0  0  0  0  0  0  0  0  0  0
  110.9760  156.6920  152.5480 O   0  0  0  0  0  0  0  0  0  0  0  0
  110.8770  155.5870  149.7050 Cl  0  0  0  0  0  0  0  0  0  0  0  0
  110.9540  156.7330  153.9720 C   0  0  0  0  0  0  0  0  0  0  0  0
  110.5840  150.7360  155.3580 N   0  0  0  0  0  0  0  0  0  0  0  0
  112.4580  155.6280  155.6740 C   0  0  0  0  0  0  0  0  0  0  0  0
  106.4480  159.6570  148.7480 N   0  0  0  0  0  0  0  0  0  0  0  0
  110.9860  153.1140  154.9690 C   0  0  0  0  0  0  0  0  0  0  0  0
  109.2880  154.4980  153.9610 C   0  0  0  0  0  0  0  0  0  0  0  0
  109.9600  152.0720  155.3960 C   0  0  0  0  0  0  0  0  0  0  0  0
  108.2030  153.5100  154.3690 C   0  0  0  0  0  0  0  0  0  0  0  0
  111.9520  157.6910  154.4750 C   0  0  0  0  0  0  0  0  0  0  0  0
  108.7780  152.1030  154.4380 C   0  0  0  0  0  0  0  0  0  0  0  0
  112.8280  157.0690  155.4620 C   0  0  0  0  0  0  0  0  0  0  0  0
  112.1210  159.0180  154.1210 C   0  0  0  0  0  0  0  0  0  0  0  0
  113.8460  157.7880  156.0640 C   0  0  0  0  0  0  0  0  0  0  0  0
  113.1520  159.7210  154.7430 C   0  0  0  0  0  0  0  0  0  0  0  0
  113.9910  159.1230  155.6900 C   0  0  0  0  0  0  0  0  0  0  0  0
  110.0310  157.3170  151.7800 C   0  0  0  0  0  0  0  0  0  0  0  0
  109.8530  156.9060  150.3700 C   0  0  0  0  0  0  0  0  0  0  0  0
  109.2440  158.3350  152.2950 C   0  0  0  0  0  0  0  0  0  0  0  0
  108.8990  157.5470  149.5980 C   0  0  0  0  0  0  0  0  0  0  0  0
  108.2940  158.9530  151.4760 C   0  0  0  0  0  0  0  0  0  0  0  0
  108.1290  158.5600  150.1420 C   0  0  0  0  0  0  0  0  0  0  0  0
  107.2450  159.1360  149.4100 C   0  0  0  0  0  0  0  0  0  0  0  0
  154.4610  182.2030  154.9220 N   0  0  0  0  0  0  0  0  0  0  0  0
  155.3880  181.1320  154.5150 C   0  0  0  0  0  0  0  0  0  0  0  0
  156.6900  181.6260  152.5450 O   0  0  0  0  0  0  0  0  0  0  0  0
  155.5850  181.7250  149.7020 Cl  0  0  0  0  0  0  0  0  0  0  0  0
  156.7310  181.6480  153.9690 C   0  0  0  0  0  0  0  0  0  0  0  0
  150.7340  182.0180  155.3550 N   0  0  0  0  0  0  0  0  0  0  0  0
  155.6260  180.1440  155.6710 C   0  0  0  0  0  0  0  0  0  0  0  0
  159.6560  186.1540  148.7450 N   0  0  0  0  0  0  0  0  0  0  0  0
  153.1120  181.6160  154.9660 C   0  0  0  0  0  0  0  0  0  0  0  0
  154.4960  183.3140  153.9580 C   0  0  0  0  0  0  0  0  0  0  0  0
  152.0700  182.6420  155.3930 C   0  0  0  0  0  0  0  0  0  0  0  0
  153.5080  184.3990  154.3660 C   0  0  0  0  0  0  0  0  0  0  0  0
  157.6890  180.6500  154.4720 C   0  0  0  0  0  0  0  0  0  0  0  0
  152.1010  183.8240  154.4350 C   0  0  0  0  0  0  0  0  0  0  0  0
  157.0670  179.7740  155.4600 C   0  0  0  0  0  0  0  0  0  0  0  0
  159.0160  180.4810  154.1180 C   0  0  0  0  0  0  0  0  0  0  0  0
  157.7860  178.7560  156.0620 C   0  0  0  0  0  0  0  0  0  0  0  0
  159.7190  179.4500  154.7410 C   0  0  0  0  0  0  0  0  0  0  0  0
  159.1210  178.6110  155.6880 C   0  0  0  0  0  0  0  0  0  0  0  0
  157.3150  182.5710  151.7770 C   0  0  0  0  0  0  0  0  0  0  0  0
  156.9040  182.7490  150.3670 C   0  0  0  0  0  0  0  0  0  0  0  0
  158.3330  183.3580  152.2920 C   0  0  0  0  0  0  0  0  0  0  0  0
  157.5450  183.7030  149.5950 C   0  0  0  0  0  0  0  0  0  0  0  0
  158.9510  184.3080  151.4730 C   0  0  0  0  0  0  0  0  0  0  0  0
  158.5580  184.4730  150.1390 C   0  0  0  0  0  0  0  0  0  0  0  0
  159.1350  185.3570  149.4070 C   0  0  0  0  0  0  0  0  0  0  0  0
  182.2010  138.1410  154.9250 N   0  0  0  0  0  0  0  0  0  0  0  0
  181.1300  137.2140  154.5190 C   0  0  0  0  0  0  0  0  0  0  0  0
  181.6240  135.9120  152.5490 O   0  0  0  0  0  0  0  0  0  0  0  0
  181.7230  137.0170  149.7060 Cl  0  0  0  0  0  0  0  0  0  0  0  0
  181.6460  135.8710  153.9730 C   0  0  0  0  0  0  0  0  0  0  0  0
  182.0160  141.8680  155.3580 N   0  0  0  0  0  0  0  0  0  0  0  0
  180.1420  136.9760  155.6750 C   0  0  0  0  0  0  0  0  0  0  0  0
  186.1530  132.9460  148.7490 N   0  0  0  0  0  0  0  0  0  0  0  0
  181.6140  139.4900  154.9690 C   0  0  0  0  0  0  0  0  0  0  0  0
  183.3120  138.1060  153.9610 C   0  0  0  0  0  0  0  0  0  0  0  0
  182.6400  140.5320  155.3960 C   0  0  0  0  0  0  0  0  0  0  0  0
  184.3970  139.0940  154.3690 C   0  0  0  0  0  0  0  0  0  0  0  0
  180.6490  134.9130  154.4760 C   0  0  0  0  0  0  0  0  0  0  0  0
  183.8220  140.5010  154.4380 C   0  0  0  0  0  0  0  0  0  0  0  0
  179.7730  135.5350  155.4630 C   0  0  0  0  0  0  0  0  0  0  0  0
  180.4800  133.5860  154.1220 C   0  0  0  0  0  0  0  0  0  0  0  0
  178.7550  134.8160  156.0650 C   0  0  0  0  0  0  0  0  0  0  0  0
  179.4490  132.8830  154.7450 C   0  0  0  0  0  0  0  0  0  0  0  0
  178.6100  133.4810  155.6910 C   0  0  0  0  0  0  0  0  0  0  0  0
  182.5690  135.2870  151.7810 C   0  0  0  0  0  0  0  0  0  0  0  0
  182.7470  135.6980  150.3710 C   0  0  0  0  0  0  0  0  0  0  0  0
  183.3570  134.2690  152.2960 C   0  0  0  0  0  0  0  0  0  0  0  0
  183.7010  135.0570  149.5990 C   0  0  0  0  0  0  0  0  0  0  0  0
  184.3070  133.6510  151.4770 C   0  0  0  0  0  0  0  0  0  0  0  0
  184.4720  134.0440  150.1430 C   0  0  0  0  0  0  0  0  0  0  0  0
  185.3560  133.4670  149.4110 C   0  0  0  0  0  0  0  0  0  0  0  0
  138.1390  110.4010  154.9280 N   0  0  0  0  0  0  0  0  0  0  0  0
  137.2120  111.4720  154.5210 C   0  0  0  0  0  0  0  0  0  0  0  0
  135.9100  110.9780  152.5510 O   0  0  0  0  0  0  0  0  0  0  0  0
  137.0150  110.8780  149.7080 Cl  0  0  0  0  0  0  0  0  0  0  0  0
  135.8690  110.9560  153.9750 C   0  0  0  0  0  0  0  0  0  0  0  0
  141.8660  110.5860  155.3610 N   0  0  0  0  0  0  0  0  0  0  0  0
  136.9740  112.4600  155.6770 C   0  0  0  0  0  0  0  0  0  0  0  0
  132.9440  106.4490  148.7510 N   0  0  0  0  0  0  0  0  0  0  0  0
  139.4880  110.9880  154.9720 C   0  0  0  0  0  0  0  0  0  0  0  0
  138.1040  109.2900  153.9640 C   0  0  0  0  0  0  0  0  0  0  0  0
  140.5300  109.9620  155.3990 C   0  0  0  0  0  0  0  0  0  0  0  0
  139.0920  108.2050  154.3720 C   0  0  0  0  0  0  0  0  0  0  0  0
  134.9110  111.9540  154.4780 C   0  0  0  0  0  0  0  0  0  0  0  0
  140.4990  108.7800  154.4410 C   0  0  0  0  0  0  0  0  0  0  0  0
  135.5330  112.8300  155.4650 C   0  0  0  0  0  0  0  0  0  0  0  0
  133.5840  112.1230  154.1240 C   0  0  0  0  0  0  0  0  0  0  0  0
  134.8140  113.8480  156.0670 C   0  0  0  0  0  0  0  0  0  0  0  0
  132.8810  113.1540  154.7470 C   0  0  0  0  0  0  0  0  0  0  0  0
  133.4790  113.9930  155.6930 C   0  0  0  0  0  0  0  0  0  0  0  0
  135.2850  110.0320  151.7830 C   0  0  0  0  0  0  0  0  0  0  0  0
  135.6960  109.8540  150.3730 C   0  0  0  0  0  0  0  0  0  0  0  0
  134.2670  109.2450  152.2980 C   0  0  0  0  0  0  0  0  0  0  0  0
  135.0550  108.9000  149.6010 C   0  0  0  0  0  0  0  0  0  0  0  0
  133.6490  108.2950  151.4790 C   0  0  0  0  0  0  0  0  0  0  0  0
  134.0420  108.1300  150.1450 C   0  0  0  0  0  0  0  0  0  0  0  0
  133.4650  107.2460  149.4130 C   0  0  0  0  0  0  0  0  0  0  0  0
  1  2  1  0  0  0  0
  2  5  1  0  0  0  0
  3  5  1  0  0  0  0
  2  7  1  0  0  0  0
  1  9  1  0  0  0  0
  1 10  1  0  0  0  0
  6 11  1  0  0  0  0
  9 11  1  0  0  0  0
 10 12  1  0  0  0  0
  5 13  1  0  0  0  0
 11 14  1  0  0  0  0
 12 14  1  0  0  0  0
  7 15  1  0  0  0  0
 13 15  1  0  0  0  0
 13 16  2  0  0  0  0
 15 17  2  0  0  0  0
 16 18  1  0  0  0  0
 17 19  1  0  0  0  0
 18 19  2  0  0  0  0
  3 20  1  0  0  0  0
  4 21  1  0  0  0  0
 20 21  2  0  0  0  0
 20 22  1  0  0  0  0
 21 23  1  0  0  0  0
 22 24  2  0  0  0  0
 23 25  2  0  0  0  0
 24 25  1  0  0  0  0
  8 26  3  0  0  0  0
 25 26  1  0  0  0  0
 27 28  1  0  0  0  0
 28 31  1  0  0  0  0
 29 31  1  0  0  0  0
 28 33  1  0  0  0  0
 27 35  1  0  0  0  0
 27 36  1  0  0  0  0
 32 37  1  0  0  0  0
 35 37  1  0  0  0  0
 36 38  1  0  0  0  0
 31 39  1  0  0  0  0
 37 40  1  0  0  0  0
 38 40  1  0  0  0  0
 33 41  1  0  0  0  0
 39 41  1  0  0  0  0
 39 42  2  0  0  0  0
 41 43  2  0  0  0  0
 42 44  1  0  0  0  0
 43 45  1  0  0  0  0
 44 45  2  0  0  0  0
 29 46  1  0  0  0  0
 30 47  1  0  0  0  0
 46 47  2  0  0  0  0
 46 48  1  0  0  0  0
 47 49  1  0  0  0  0
 48 50  2  0  0  0  0
 49 51  2  0  0  0  0
 50 51  1  0  0  0  0
 34 52  3  0  0  0  0
 51 52  1  0  0  0  0
 53 54  1  0  0  0  0
 54 57  1  0  0  0  0
 55 57  1  0  0  0  0
 54 59  1  0  0  0  0
 53 61  1  0  0  0  0
 53 62  1  0  0  0  0
 58 63  1  0  0  0  0
 61 63  1  0  0  0  0
 62 64  1  0  0  0  0
 57 65  1  0  0  0  0
 63 66  1  0  0  0  0
 64 66  1  0  0  0  0
 59 67  1  0  0  0  0
 65 67  1  0  0  0  0
 65 68  2  0  0  0  0
 67 69  2  0  0  0  0
 68 70  1  0  0  0  0
 69 71  1  0  0  0  0
 70 71  2  0  0  0  0
 55 72  1  0  0  0  0
 56 73  1  0  0  0  0
 72 73  2  0  0  0  0
 72 74  1  0  0  0  0
 73 75  1  0  0  0  0
 74 76  2  0  0  0  0
 75 77  2  0  0  0  0
 76 77  1  0  0  0  0
 60 78  3  0  0  0  0
 77 78  1  0  0  0  0
 79 80  1  0  0  0  0
 80 83  1  0  0  0  0
 81 83  1  0  0  0  0
 80 85  1  0  0  0  0
 79 87  1  0  0  0  0
 79 88  1  0  0  0  0
 84 89  1  0  0  0  0
 87 89  1  0  0  0  0
 88 90  1  0  0  0  0
 83 91  1  0  0  0  0
 89 92  1  0  0  0  0
 90 92  1  0  0  0  0
 85 93  1  0  0  0  0
 91 93  1  0  0  0  0
 91 94  2  0  0  0  0
 93 95  2  0  0  0  0
 94 96  1  0  0  0  0
 95 97  1  0  0  0  0
 96 97  2  0  0  0  0
 81 98  1  0  0  0  0
 82 99  1  0  0  0  0
 98 99  2  0  0  0  0
 98100  1  0  0  0  0
 99101  1  0  0  0  0
100102  2  0  0  0  0
101103  2  0  0  0  0
102103  1  0  0  0  0
 86104  3  0  0  0  0
103104  1  0  0  0  0
M  END
$$$$
