9DQH
  PyMOL3.1          3D                             0

 30 33  0  0  0  0  0  0  0  0999 V2000
  123.6640  132.7310  158.9800 Cl  0  0  0  0  0  0  0  0  0  0  0  0
  128.0160  131.7290  153.9430 C   0  0  0  0  0  0  0  0  0  0  0  0
  128.0390  134.9600  154.7560 N   0  0  0  0  0  0  0  0  0  0  0  0
  128.1120  134.4740  152.5620 O   0  0  0  0  0  0  0  0  0  0  0  0
  126.9720  132.8580  153.9170 C   0  0  0  0  0  0  0  0  0  0  0  0
  128.7760  137.2190  157.4130 N   0  0  0  0  0  0  0  0  0  0  0  0
  132.3510  139.4950  159.1820 O   0  0  0  0  0  0  0  0  0  0  0  0
  126.0830  132.6560  152.6790 C   0  0  0  0  0  0  0  0  0  0  0  0
  128.5950  138.1190  159.5500 N   0  0  0  0  0  0  0  0  0  0  0  0
  127.7490  134.1750  153.6960 C   0  0  0  0  0  0  0  0  0  0  0  0
  130.5750  138.3750  158.3190 N   0  0  0  0  0  0  0  0  0  0  0  0
  128.5710  134.5310  156.0550 C   0  0  0  0  0  0  0  0  0  0  0  0
  129.8580  135.2770  156.3700 C   0  0  0  0  0  0  0  0  0  0  0  0
  129.6350  136.7750  156.3180 C   0  0  0  0  0  0  0  0  0  0  0  0
  129.0760  137.1670  154.9660 C   0  0  0  0  0  0  0  0  0  0  0  0
  127.7930  136.4010  154.6860 C   0  0  0  0  0  0  0  0  0  0  0  0
  129.2950  137.9080  158.4450 C   0  0  0  0  0  0  0  0  0  0  0  0
  129.1540  138.7990  160.5690 C   0  0  0  0  0  0  0  0  0  0  0  0
  130.4550  139.3030  160.5020 C   0  0  0  0  0  0  0  0  0  0  0  0
  131.0640  140.0730  161.6470 C   0  0  0  0  0  0  0  0  0  0  0  0
  130.0320  140.5200  162.6610 C   0  0  0  0  0  0  0  0  0  0  0  0
  129.1080  139.3750  163.0150 C   0  0  0  0  0  0  0  0  0  0  0  0
  128.2970  138.9920  161.7890 C   0  0  0  0  0  0  0  0  0  0  0  0
  131.1850  139.0830  159.3350 C   0  0  0  0  0  0  0  0  0  0  0  0
  126.1190  132.8250  155.1960 C   0  0  0  0  0  0  0  0  0  0  0  0
  126.1600  131.7320  156.0560 C   0  0  0  0  0  0  0  0  0  0  0  0
  125.4120  131.6990  157.2120 C   0  0  0  0  0  0  0  0  0  0  0  0
  124.6120  132.7680  157.5190 C   0  0  0  0  0  0  0  0  0  0  0  0
  124.5410  133.8630  156.6980 C   0  0  0  0  0  0  0  0  0  0  0  0
  125.2890  133.8870  155.5430 C   0  0  0  0  0  0  0  0  0  0  0  0
  2  5  1  0  0  0  0
  5  8  1  0  0  0  0
  3 10  1  0  0  0  0
  4 10  2  0  0  0  0
  5 10  1  0  0  0  0
  3 12  1  0  0  0  0
 12 13  1  0  0  0  0
  6 14  1  0  0  0  0
 13 14  1  0  0  0  0
 14 15  1  0  0  0  0
  3 16  1  0  0  0  0
 15 16  1  0  0  0  0
  6 17  1  0  0  0  0
  9 17  2  0  0  0  0
 11 17  1  0  0  0  0
  9 18  1  0  0  0  0
 18 19  2  0  0  0  0
 19 20  1  0  0  0  0
 20 21  1  0  0  0  0
 21 22  1  0  0  0  0
 18 23  1  0  0  0  0
 22 23  1  0  0  0  0
  7 24  2  0  0  0  0
 11 24  1  0  0  0  0
 19 24  1  0  0  0  0
  5 25  1  0  0  0  0
 25 26  1  0  0  0  0
 26 27  2  0  0  0  0
  1 28  1  0  0  0  0
 27 28  1  0  0  0  0
 28 29  2  0  0  0  0
 25 30  2  0  0  0  0
 29 30  1  0  0  0  0
M  END
$$$$
