8EWA
  PyMOL3.1          3D                             0

 40 44  0  0  0  0  0  0  0  0999 V2000
  -36.9474    3.8064   26.4548 C   0  0  0  0  0  0  0  0  0  0  0  0
  -36.7210    2.6665   27.3612 N   0  0  0  0  0  0  0  0  0  0  0  0
  -37.1335    1.3685   27.4494 C   0  0  0  0  0  0  0  0  0  0  0  0
  -38.1032    0.6763   26.4919 C   0  0  0  0  0  0  0  0  0  0  0  0
  -37.6608    0.8601   25.0425 C   0  0  0  0  0  0  0  0  0  0  0  0
  -39.4761    1.3519   26.6820 C   0  0  0  0  0  0  0  0  0  0  0  0
  -38.2617   -0.8182   26.8420 C   0  0  0  0  0  0  0  0  0  0  0  0
  -36.5209    0.8074   28.5642 C   0  0  0  0  0  0  0  0  0  0  0  0
  -35.7307    1.8625   29.1217 C   0  0  0  0  0  0  0  0  0  0  0  0
  -34.9302    1.8077   30.2689 N   0  0  0  0  0  0  0  0  0  0  0  0
  -34.5521    0.8604   31.1489 C   0  0  0  0  0  0  0  0  0  0  0  0
  -33.5424    0.9970   32.1016 C   0  0  0  0  0  0  0  0  0  0  0  0
  -33.2903   -0.1321   32.8888 C   0  0  0  0  0  0  0  0  0  0  0  0
  -32.2918    0.1899   33.7332 N   0  0  0  0  0  0  0  0  0  0  0  0
  -31.8929    1.5262   33.5298 N   0  0  0  0  0  0  0  0  0  0  0  0
  -32.6294    2.0079   32.5574 C   0  0  0  0  0  0  0  0  0  0  0  0
  -33.9208   -1.3013   32.8143 N   0  0  0  0  0  0  0  0  0  0  0  0
  -34.8593   -1.3367   31.8584 C   0  0  0  0  0  0  0  0  0  0  0  0
  -35.5443   -2.4972   31.7087 N   0  0  0  0  0  0  0  0  0  0  0  0
  -36.7609   -2.6524   30.8877 C   0  0  0  0  0  0  0  0  0  0  0  0
  -37.9823   -1.9894   31.4925 C   0  0  0  0  0  0  0  0  0  0  0  0
  -39.0930   -1.7825   30.6644 C   0  0  0  0  0  0  0  0  0  0  0  0
  -40.2617   -1.2006   31.1477 C   0  0  0  0  0  0  0  0  0  0  0  0
  -40.3409   -0.8646   32.4887 C   0  0  0  0  0  0  0  0  0  0  0  0
  -39.2544   -1.0918   33.3149 C   0  0  0  0  0  0  0  0  0  0  0  0
  -38.0891   -1.6632   32.8360 C   0  0  0  0  0  0  0  0  0  0  0  0
  -37.0711   -4.1292   30.9284 C   0  0  0  0  0  0  0  0  0  0  0  0
  -36.1163   -4.8099   30.0926 O   0  0  0  0  0  0  0  0  0  0  0  0
  -36.4869   -6.0824   29.7649 C   0  0  0  0  0  0  0  0  0  0  0  0
  -35.5291   -6.7891   29.1351 N   0  0  0  0  0  0  0  0  0  0  0  0
  -35.7420   -8.1130   28.5322 C   0  0  0  0  0  0  0  0  0  0  0  0
  -34.8578   -9.1459   29.2301 C   0  0  0  0  0  0  0  0  0  0  0  0
  -34.8555  -10.4767   28.4922 C   0  0  0  0  0  0  0  0  0  0  0  0
  -33.8733  -11.3775   29.1081 N   0  0  0  0  0  0  0  0  0  0  0  0
  -33.4826   -8.6706   29.2289 O   0  0  0  0  0  0  0  0  0  0  0  0
  -33.3095   -7.3766   29.8682 C   0  0  0  0  0  0  0  0  0  0  0  0
  -34.1355   -6.3219   29.1225 C   0  0  0  0  0  0  0  0  0  0  0  0
  -37.5972   -6.4994   30.0495 O   0  0  0  0  0  0  0  0  0  0  0  0
  -35.1968   -0.3052   31.0563 N   0  0  0  0  0  0  0  0  0  0  0  0
  -35.8575    2.9512   28.4125 N   0  0  0  0  0  0  0  0  0  0  0  0
  1  2  1  0  0  0  0
  2  3  1  0  0  0  0
  3  4  1  0  0  0  0
  4  5  1  0  0  0  0
  4  6  1  0  0  0  0
  4  7  1  0  0  0  0
  3  8  2  0  0  0  0
  8  9  1  0  0  0  0
  9 10  1  0  0  0  0
 10 11  1  0  0  0  0
 11 12  1  0  0  0  0
 12 13  2  0  0  0  0
 13 14  1  0  0  0  0
 14 15  1  0  0  0  0
 12 16  1  0  0  0  0
 15 16  2  0  0  0  0
 13 17  1  0  0  0  0
 17 18  2  0  0  0  0
 18 19  1  0  0  0  0
 19 20  1  0  0  0  0
 20 21  1  0  0  0  0
 21 22  2  0  0  0  0
 22 23  1  0  0  0  0
 23 24  2  0  0  0  0
 24 25  1  0  0  0  0
 21 26  1  0  0  0  0
 25 26  2  0  0  0  0
 20 27  1  0  0  0  0
 27 28  1  0  0  0  0
 28 29  1  0  0  0  0
 29 30  1  0  0  0  0
 30 31  1  0  0  0  0
 31 32  1  0  0  0  0
 32 33  1  0  0  0  0
 33 34  1  0  0  0  0
 32 35  1  0  0  0  0
 35 36  1  0  0  0  0
 30 37  1  0  0  0  0
 36 37  1  0  0  0  0
 29 38  2  0  0  0  0
 11 39  2  0  0  0  0
 18 39  1  0  0  0  0
  2 40  1  0  0  0  0
  9 40  2  0  0  0  0
M  END
$$$$
