7R6J
  PyMOL3.1          3D                             0

 33 36  0  0  0  0  0  0  0  0999 V2000
  -33.3460  -30.8450  -69.0550 C   0  0  0  0  0  0  0  0  0  0  0  0
  -35.7340  -30.1120  -68.9810 N   0  0  0  0  0  0  0  0  0  0  0  0
  -32.0120  -30.7650  -68.4990 O   0  0  0  0  0  0  0  0  0  0  0  0
  -33.7160  -32.2510  -69.2740 C   0  0  0  0  0  0  0  0  0  0  0  0
  -40.3550  -32.6300  -64.3120 N   0  0  0  0  0  0  0  0  0  0  0  0
  -32.7720  -32.8880  -70.2170 O   0  0  0  0  0  0  0  0  0  0  0  0
  -35.0010  -32.3110  -69.9780 C   0  0  0  0  0  0  0  0  0  0  0  0
  -43.3760  -28.9860  -66.6910 N   0  0  0  0  0  0  0  0  0  0  0  0
  -35.3410  -33.6750  -70.2500 O   0  0  0  0  0  0  0  0  0  0  0  0
  -36.0890  -31.5540  -69.1150 C   0  0  0  0  0  0  0  0  0  0  0  0
  -43.3280  -27.2520  -65.1500 N   0  0  0  0  0  0  0  0  0  0  0  0
  -34.1660  -28.0220  -69.4600 O   0  0  0  0  0  0  0  0  0  0  0  0
  -34.4420  -30.0350  -68.2510 C   0  0  0  0  0  0  0  0  0  0  0  0
  -33.9700  -28.5470  -68.2040 C   0  0  0  0  0  0  0  0  0  0  0  0
  -36.7660  -29.4110  -68.5740 C   0  0  0  0  0  0  0  0  0  0  0  0
  -37.2970  -29.8840  -67.1160 C   0  0  0  0  0  0  0  0  0  0  0  0
  -38.2120  -30.9140  -66.9630 C   0  0  0  0  0  0  0  0  0  0  0  0
  -38.6380  -31.3790  -65.6740 C   0  0  0  0  0  0  0  0  0  0  0  0
  -39.6650  -32.5650  -65.6100 C   0  0  0  0  0  0  0  0  0  0  0  0
  -41.2200  -31.4960  -63.8770 C   0  0  0  0  0  0  0  0  0  0  0  0
  -41.5290  -31.3030  -62.5200 C   0  0  0  0  0  0  0  0  0  0  0  0
  -42.3170  -30.2140  -62.1170 C   0  0  0  0  0  0  0  0  0  0  0  0
  -42.6680  -29.9740  -60.6140 C   0  0  0  0  0  0  0  0  0  0  0  0
  -42.8110  -29.3270  -63.0860 C   0  0  0  0  0  0  0  0  0  0  0  0
  -42.5080  -29.5140  -64.4340 C   0  0  0  0  0  0  0  0  0  0  0  0
  -43.0940  -28.5300  -65.4810 C   0  0  0  0  0  0  0  0  0  0  0  0
  -43.9250  -28.2140  -67.6510 C   0  0  0  0  0  0  0  0  0  0  0  0
  -44.1710  -26.8680  -67.3500 C   0  0  0  0  0  0  0  0  0  0  0  0
  -43.8440  -26.4130  -66.0690 C   0  0  0  0  0  0  0  0  0  0  0  0
  -41.7170  -30.5920  -64.8520 C   0  0  0  0  0  0  0  0  0  0  0  0
  -38.1130  -30.8070  -64.5300 C   0  0  0  0  0  0  0  0  0  0  0  0
  -37.2200  -29.7660  -64.6530 C   0  0  0  0  0  0  0  0  0  0  0  0
  -36.7670  -29.3220  -65.9540 C   0  0  0  0  0  0  0  0  0  0  0  0
  1  3  1  0  0  0  0
  1  4  1  0  0  0  0
  4  6  1  0  0  0  0
  4  7  1  0  0  0  0
  7  9  1  0  0  0  0
  2 10  1  0  0  0  0
  7 10  1  0  0  0  0
  1 13  1  0  0  0  0
  2 13  1  0  0  0  0
 12 14  1  0  0  0  0
 13 14  1  0  0  0  0
  2 15  1  0  0  0  0
 15 16  1  0  0  0  0
 16 17  2  0  0  0  0
 17 18  1  0  0  0  0
  5 19  1  0  0  0  0
 18 19  1  0  0  0  0
  5 20  1  0  0  0  0
 20 21  2  0  0  0  0
 21 22  1  0  0  0  0
 22 23  1  0  0  0  0
 22 24  2  0  0  0  0
 24 25  1  0  0  0  0
  8 26  2  0  0  0  0
 11 26  1  0  0  0  0
 25 26  1  0  0  0  0
  8 27  1  0  0  0  0
 27 28  2  0  0  0  0
 11 29  2  0  0  0  0
 28 29  1  0  0  0  0
 20 30  1  0  0  0  0
 25 30  2  0  0  0  0
 18 31  2  0  0  0  0
 31 32  1  0  0  0  0
 16 33  1  0  0  0  0
 32 33  2  0  0  0  0
M  END
$$$$
