8BHA
  PyMOL3.1          3D                             0

 51 54  0  0  0  0  0  0  0  0999 V2000
  153.5070  189.6530  194.4450 N   0  0  0  0  0  0  0  0  0  0  0  0
  150.6760  188.8720  192.3170 C   0  0  0  0  0  0  0  0  0  0  0  0
  152.2560  189.0820  194.1200 O   0  0  0  0  0  0  0  0  0  0  0  0
  151.9650  189.3870  192.8390 C   0  0  0  0  0  0  0  0  0  0  0  0
  152.8200  193.5530  189.2050 N   0  0  0  0  0  0  0  0  0  0  0  0
  153.0260  192.1120  191.0060 O   0  0  0  0  0  0  0  0  0  0  0  0
  152.9620  190.1290  192.3020 C   0  0  0  0  0  0  0  0  0  0  0  0
  156.1700  194.5830  186.0500 N   0  0  0  0  0  0  0  0  0  0  0  0
  155.3130  196.3710  187.1000 O   0  0  0  0  0  0  0  0  0  0  0  0
  153.9040  190.2630  193.3620 C   0  0  0  0  0  0  0  0  0  0  0  0
  160.2340  193.3780  185.1880 O   0  0  0  0  0  0  0  0  0  0  0  0
  155.2020  190.9650  193.3820 C   0  0  0  0  0  0  0  0  0  0  0  0
  158.4610  193.1580  183.4920 O   0  0  0  0  0  0  0  0  0  0  0  0
  156.3800  190.2690  193.6280 C   0  0  0  0  0  0  0  0  0  0  0  0
  157.6050  190.9150  193.6150 C   0  0  0  0  0  0  0  0  0  0  0  0
  157.6230  192.2570  193.3540 C   0  0  0  0  0  0  0  0  0  0  0  0
  156.4920  192.9880  193.1130 C   0  0  0  0  0  0  0  0  0  0  0  0
  155.2740  192.3310  193.1300 C   0  0  0  0  0  0  0  0  0  0  0  0
  153.0820  190.6920  190.9190 C   0  0  0  0  0  0  0  0  0  0  0  0
  153.5890  192.8190  189.9930 C   0  0  0  0  0  0  0  0  0  0  0  0
  153.4360  194.2780  188.2580 C   0  0  0  0  0  0  0  0  0  0  0  0
  154.8110  194.2970  188.0680 C   0  0  0  0  0  0  0  0  0  0  0  0
  155.5780  193.5020  188.9080 C   0  0  0  0  0  0  0  0  0  0  0  0
  154.9760  192.7430  189.8920 C   0  0  0  0  0  0  0  0  0  0  0  0
  155.4530  195.1640  187.0340 C   0  0  0  0  0  0  0  0  0  0  0  0
  156.3860  193.1470  185.8420 C   0  0  0  0  0  0  0  0  0  0  0  0
  157.8380  192.7100  185.9900 C   0  0  0  0  0  0  0  0  0  0  0  0
  158.3940  195.2310  185.0820 C   0  0  0  0  0  0  0  0  0  0  0  0
  156.8780  195.3810  185.0450 C   0  0  0  0  0  0  0  0  0  0  0  0
  158.8240  192.8950  193.3260 F   0  0  0  0  0  0  0  0  0  0  0  0
  158.8550  193.5490  184.8190 S   0  0  0  0  0  0  0  0  0  0  0  0
  150.8400  188.0230  191.6560 H   0  0  0  0  0  0  0  0  0  0  0  0
  149.9890  188.5580  193.1000 H   0  0  0  0  0  0  0  0  0  0  0  0
  150.1750  189.6430  191.7330 H   0  0  0  0  0  0  0  0  0  0  0  0
  156.3390  189.2010  193.8370 H   0  0  0  0  0  0  0  0  0  0  0  0
  158.5190  190.3630  193.8110 H   0  0  0  0  0  0  0  0  0  0  0  0
  156.5400  194.0550  192.9120 H   0  0  0  0  0  0  0  0  0  0  0  0
  154.3600  192.8950  192.9480 H   0  0  0  0  0  0  0  0  0  0  0  0
  152.2620  190.3290  190.3040 H   0  0  0  0  0  0  0  0  0  0  0  0
  154.0110  190.3540  190.4640 H   0  0  0  0  0  0  0  0  0  0  0  0
  152.7650  194.8680  187.6350 H   0  0  0  0  0  0  0  0  0  0  0  0
  156.6590  193.4740  188.7890 H   0  0  0  0  0  0  0  0  0  0  0  0
  155.5580  192.1060  190.5560 H   0  0  0  0  0  0  0  0  0  0  0  0
  156.0640  192.8780  184.8380 H   0  0  0  0  0  0  0  0  0  0  0  0
  155.7400  192.5350  186.4660 H   0  0  0  0  0  0  0  0  0  0  0  0
  158.1510  192.8820  187.0190 H   0  0  0  0  0  0  0  0  0  0  0  0
  157.9100  191.6260  185.9260 H   0  0  0  0  0  0  0  0  0  0  0  0
  158.8120  195.6740  185.9840 H   0  0  0  0  0  0  0  0  0  0  0  0
  158.8210  195.8870  184.3260 H   0  0  0  0  0  0  0  0  0  0  0  0
  156.6230  196.4340  185.1460 H   0  0  0  0  0  0  0  0  0  0  0  0
  156.5150  195.1000  184.0580 H   0  0  0  0  0  0  0  0  0  0  0  0
  1  3  1  0  0  0  0
  2  4  1  0  0  0  0
  3  4  1  0  0  0  0
  4  7  2  0  0  0  0
  1 10  2  0  0  0  0
  7 10  1  0  0  0  0
 10 12  1  0  0  0  0
 12 14  1  0  0  0  0
 14 15  2  0  0  0  0
 15 16  1  0  0  0  0
 16 17  2  0  0  0  0
 12 18  2  0  0  0  0
 17 18  1  0  0  0  0
  6 19  1  0  0  0  0
  7 19  1  0  0  0  0
  5 20  1  0  0  0  0
  6 20  1  0  0  0  0
  5 21  2  0  0  0  0
 21 22  1  0  0  0  0
 22 23  2  0  0  0  0
 20 24  2  0  0  0  0
 23 24  1  0  0  0  0
  8 25  1  0  0  0  0
  9 25  2  0  0  0  0
 22 25  1  0  0  0  0
  8 26  1  0  0  0  0
 26 27  1  0  0  0  0
  8 29  1  0  0  0  0
 28 29  1  0  0  0  0
 16 30  1  0  0  0  0
 11 31  2  0  0  0  0
 13 31  2  0  0  0  0
 27 31  1  0  0  0  0
 28 31  1  0  0  0  0
  2 32  1  0  0  0  0
  2 33  1  0  0  0  0
  2 34  1  0  0  0  0
 14 35  1  0  0  0  0
 15 36  1  0  0  0  0
 17 37  1  0  0  0  0
 18 38  1  0  0  0  0
 19 39  1  0  0  0  0
 19 40  1  0  0  0  0
 21 41  1  0  0  0  0
 23 42  1  0  0  0  0
 24 43  1  0  0  0  0
 26 44  1  0  0  0  0
 26 45  1  0  0  0  0
 27 46  1  0  0  0  0
 27 47  1  0  0  0  0
 28 48  1  0  0  0  0
 28 49  1  0  0  0  0
 29 50  1  0  0  0  0
 29 51  1  0  0  0  0
M  END
$$$$
