8BHA
  PyMOL3.1          3D                             0

 51 54  0  0  0  0  0  0  0  0999 V2000
  170.6430  143.8320  194.4510 N   0  0  0  0  0  0  0  0  0  0  0  0
  173.3930  142.8000  192.3230 C   0  0  0  0  0  0  0  0  0  0  0  0
  171.9900  143.5590  194.1260 O   0  0  0  0  0  0  0  0  0  0  0  0
  172.0460  143.1410  192.8460 C   0  0  0  0  0  0  0  0  0  0  0  0
  168.9080  140.2700  189.2120 N   0  0  0  0  0  0  0  0  0  0  0  0
  169.5880  141.5580  191.0120 O   0  0  0  0  0  0  0  0  0  0  0  0
  170.8040  143.1260  192.3080 C   0  0  0  0  0  0  0  0  0  0  0  0
  165.5920  141.4050  186.0560 N   0  0  0  0  0  0  0  0  0  0  0  0
  165.2360  139.4550  187.1060 O   0  0  0  0  0  0  0  0  0  0  0  0
  169.9630  143.5710  193.3680 C   0  0  0  0  0  0  0  0  0  0  0  0
  163.0110  144.7670  185.1930 O   0  0  0  0  0  0  0  0  0  0  0  0
  168.5010  143.7660  193.3870 C   0  0  0  0  0  0  0  0  0  0  0  0
  164.5760  143.9030  183.4980 O   0  0  0  0  0  0  0  0  0  0  0  0
  167.9560  145.0220  193.6340 C   0  0  0  0  0  0  0  0  0  0  0  0
  166.5850  145.2180  193.6200 C   0  0  0  0  0  0  0  0  0  0  0  0
  165.7820  144.1420  193.3590 C   0  0  0  0  0  0  0  0  0  0  0  0
  166.2670  142.8870  193.1180 C   0  0  0  0  0  0  0  0  0  0  0  0
  167.6400  142.7020  193.1360 C   0  0  0  0  0  0  0  0  0  0  0  0
  170.3770  142.7410  190.9260 C   0  0  0  0  0  0  0  0  0  0  0  0
  168.7160  141.3170  190.0000 C   0  0  0  0  0  0  0  0  0  0  0  0
  167.9830  140.0450  188.2650 C   0  0  0  0  0  0  0  0  0  0  0  0
  166.8600  140.8380  188.0750 C   0  0  0  0  0  0  0  0  0  0  0  0
  166.7060  141.9320  188.9140 C   0  0  0  0  0  0  0  0  0  0  0  0
  167.6390  142.1930  189.8980 C   0  0  0  0  0  0  0  0  0  0  0  0
  165.8310  140.5140  187.0400 C   0  0  0  0  0  0  0  0  0  0  0  0
  166.2610  142.6940  185.8480 C   0  0  0  0  0  0  0  0  0  0  0  0
  165.3430  143.9000  185.9960 C   0  0  0  0  0  0  0  0  0  0  0  0
  163.4120  142.1870  185.0870 C   0  0  0  0  0  0  0  0  0  0  0  0
  164.5510  141.1740  185.0510 C   0  0  0  0  0  0  0  0  0  0  0  0
  164.4350  144.3320  193.3310 F   0  0  0  0  0  0  0  0  0  0  0  0
  164.0270  143.8190  184.8240 S   0  0  0  0  0  0  0  0  0  0  0  0
  173.7590  143.5830  191.6630 H   0  0  0  0  0  0  0  0  0  0  0  0
  174.1330  142.6510  193.1070 H   0  0  0  0  0  0  0  0  0  0  0  0
  173.3450  141.8820  191.7400 H   0  0  0  0  0  0  0  0  0  0  0  0
  168.6160  145.8610  193.8430 H   0  0  0  0  0  0  0  0  0  0  0  0
  166.1700  146.2020  193.8150 H   0  0  0  0  0  0  0  0  0  0  0  0
  165.6020  142.0510  192.9180 H   0  0  0  0  0  0  0  0  0  0  0  0
  168.0480  141.7090  192.9540 H   0  0  0  0  0  0  0  0  0  0  0  0
  171.2530  142.5520  190.3110 H   0  0  0  0  0  0  0  0  0  0  0  0
  169.8230  143.5600  190.4700 H   0  0  0  0  0  0  0  0  0  0  0  0
  168.1810  139.1740  187.6430 H   0  0  0  0  0  0  0  0  0  0  0  0
  165.8470  142.5900  188.7950 H   0  0  0  0  0  0  0  0  0  0  0  0
  167.5420  143.0510  190.5610 H   0  0  0  0  0  0  0  0  0  0  0  0
  166.6800  142.7210  184.8430 H   0  0  0  0  0  0  0  0  0  0  0  0
  167.1440  142.8090  186.4710 H   0  0  0  0  0  0  0  0  0  0  0  0
  164.9890  143.9450  187.0240 H   0  0  0  0  0  0  0  0  0  0  0  0
  165.9220  144.8200  185.9310 H   0  0  0  0  0  0  0  0  0  0  0  0
  162.8140  142.0740  185.9890 H   0  0  0  0  0  0  0  0  0  0  0  0
  162.6810  141.9060  184.3310 H   0  0  0  0  0  0  0  0  0  0  0  0
  164.1390  140.1720  185.1520 H   0  0  0  0  0  0  0  0  0  0  0  0
  165.0100  141.1880  184.0640 H   0  0  0  0  0  0  0  0  0  0  0  0
  1  3  1  0  0  0  0
  2  4  1  0  0  0  0
  3  4  1  0  0  0  0
  4  7  2  0  0  0  0
  1 10  2  0  0  0  0
  7 10  1  0  0  0  0
 10 12  1  0  0  0  0
 12 14  1  0  0  0  0
 14 15  2  0  0  0  0
 15 16  1  0  0  0  0
 16 17  2  0  0  0  0
 12 18  2  0  0  0  0
 17 18  1  0  0  0  0
  6 19  1  0  0  0  0
  7 19  1  0  0  0  0
  5 20  1  0  0  0  0
  6 20  1  0  0  0  0
  5 21  2  0  0  0  0
 21 22  1  0  0  0  0
 22 23  2  0  0  0  0
 20 24  2  0  0  0  0
 23 24  1  0  0  0  0
  8 25  1  0  0  0  0
  9 25  2  0  0  0  0
 22 25  1  0  0  0  0
  8 26  1  0  0  0  0
 26 27  1  0  0  0  0
  8 29  1  0  0  0  0
 28 29  1  0  0  0  0
 16 30  1  0  0  0  0
 11 31  2  0  0  0  0
 13 31  2  0  0  0  0
 27 31  1  0  0  0  0
 28 31  1  0  0  0  0
  2 32  1  0  0  0  0
  2 33  1  0  0  0  0
  2 34  1  0  0  0  0
 14 35  1  0  0  0  0
 15 36  1  0  0  0  0
 17 37  1  0  0  0  0
 18 38  1  0  0  0  0
 19 39  1  0  0  0  0
 19 40  1  0  0  0  0
 21 41  1  0  0  0  0
 23 42  1  0  0  0  0
 24 43  1  0  0  0  0
 26 44  1  0  0  0  0
 26 45  1  0  0  0  0
 27 46  1  0  0  0  0
 27 47  1  0  0  0  0
 28 48  1  0  0  0  0
 28 49  1  0  0  0  0
 29 50  1  0  0  0  0
 29 51  1  0  0  0  0
M  END
$$$$
