8V4X
  PyMOL3.1          3D                             0

 33 36  0  0  0  0  0  0  0  0999 V2000
  -36.7280  -23.2240   12.5030 N   0  0  0  0  0  0  0  0  0  0  0  0
  -36.8820  -22.0830   11.7530 C   0  0  0  0  0  0  0  0  0  0  0  0
  -35.9930  -21.2620   11.5450 O   0  0  0  0  0  0  0  0  0  0  0  0
  -38.6900  -20.9360   10.4500 C   0  0  0  0  0  0  0  0  0  0  0  0
  -38.1550  -21.9660   11.2600 N   0  0  0  0  0  0  0  0  0  0  0  0
  -40.7180  -22.0280   12.3500 O   0  0  0  0  0  0  0  0  0  0  0  0
  -39.8830  -20.3040   10.8090 C   0  0  0  0  0  0  0  0  0  0  0  0
  -41.4410  -18.4120   10.2270 N   0  0  0  0  0  0  0  0  0  0  0  0
  -40.3640  -19.2630   10.0010 C   0  0  0  0  0  0  0  0  0  0  0  0
  -38.4710  -19.5740    8.5090 N   0  0  0  0  0  0  0  0  0  0  0  0
  -39.5950  -18.9660    8.8910 C   0  0  0  0  0  0  0  0  0  0  0  0
  -34.6260  -25.6490   14.2850 N   0  0  0  0  0  0  0  0  0  0  0  0
  -41.4780  -17.4800    9.3300 C   0  0  0  0  0  0  0  0  0  0  0  0
  -32.4060  -25.8220   14.9040 N   0  0  0  0  0  0  0  0  0  0  0  0
  -42.5030  -16.4000    9.2910 C   0  0  0  0  0  0  0  0  0  0  0  0
  -31.6700  -25.3860   15.9330 N   0  0  0  0  0  0  0  0  0  0  0  0
  -38.0130  -20.5560    9.2950 C   0  0  0  0  0  0  0  0  0  0  0  0
  -32.1500  -27.0750   14.5090 N   0  0  0  0  0  0  0  0  0  0  0  0
  -40.6630  -20.6290   12.0910 C   0  0  0  0  0  0  0  0  0  0  0  0
  -41.7000  -22.6890   11.5700 C   0  0  0  0  0  0  0  0  0  0  0  0
  -40.0480  -20.0140   13.3310 C   0  0  0  0  0  0  0  0  0  0  0  0
  -35.5480  -23.7730   13.0680 C   0  0  0  0  0  0  0  0  0  0  0  0
  -35.6480  -25.0060   13.7070 C   0  0  0  0  0  0  0  0  0  0  0  0
  -33.4300  -25.0450   14.2310 C   0  0  0  0  0  0  0  0  0  0  0  0
  -30.8840  -26.4200   16.2090 C   0  0  0  0  0  0  0  0  0  0  0  0
  -31.1820  -27.4640   15.3310 C   0  0  0  0  0  0  0  0  0  0  0  0
  -33.1840  -23.7790   13.5930 C   0  0  0  0  0  0  0  0  0  0  0  0
  -34.2950  -23.1670   13.0230 C   0  0  0  0  0  0  0  0  0  0  0  0
  -31.9000  -23.0080   13.4250 C   0  0  0  0  0  0  0  0  0  0  0  0
  -31.9010  -21.8600   14.0980 F   0  0  0  0  0  0  0  0  0  0  0  0
  -31.6600  -22.6780   12.1610 F   0  0  0  0  0  0  0  0  0  0  0  0
  -30.8240  -23.6870   13.8050 F   0  0  0  0  0  0  0  0  0  0  0  0
  -40.2240  -17.5400    8.1140 S   0  0  0  0  0  0  0  0  0  0  0  0
  1  2  1  0  0  0  0
  2  3  2  0  0  0  0
  2  5  1  0  0  0  0
  4  5  1  0  0  0  0
  4  7  2  0  0  0  0
  7  9  1  0  0  0  0
  8  9  1  0  0  0  0
  9 11  2  0  0  0  0
 10 11  1  0  0  0  0
  8 13  2  0  0  0  0
 13 15  1  0  0  0  0
 14 16  1  0  0  0  0
  4 17  1  0  0  0  0
 10 17  2  0  0  0  0
 14 18  1  0  0  0  0
  6 19  1  0  0  0  0
  7 19  1  0  0  0  0
  6 20  1  0  0  0  0
 19 21  1  0  0  0  0
  1 22  1  0  0  0  0
 12 23  1  0  0  0  0
 22 23  2  0  0  0  0
 12 24  2  0  0  0  0
 14 24  1  0  0  0  0
 16 25  2  0  0  0  0
 18 26  2  0  0  0  0
 25 26  1  0  0  0  0
 24 27  1  0  0  0  0
 22 28  1  0  0  0  0
 27 28  2  0  0  0  0
 27 29  1  0  0  0  0
 29 30  1  0  0  0  0
 29 31  1  0  0  0  0
 29 32  1  0  0  0  0
 11 33  1  0  0  0  0
 13 33  1  0  0  0  0
M  END
$$$$
