8QUD
  PyMOL3.1          3D                             0

 27 31  0  0  0  0  0  0  0  0999 V2000
  110.9290  146.1170  151.9020 C   0  0  0  0  0  0  0  0  0  0  0  0
  110.5740  148.3440  154.3330 N   0  0  0  0  0  0  0  0  0  0  0  0
  113.1170  148.8180  149.7120 O   0  0  0  0  0  0  0  0  0  0  0  0
  110.5390  147.4450  151.7850 C   0  0  0  0  0  0  0  0  0  0  0  0
  109.4020  149.1040  157.7590 N   0  0  0  0  0  0  0  0  0  0  0  0
  109.3940  147.9530  152.3910 O   0  0  0  0  0  0  0  0  0  0  0  0
  111.3300  148.3030  151.0340 C   0  0  0  0  0  0  0  0  0  0  0  0
  108.7080  149.2390  159.8740 N   0  0  0  0  0  0  0  0  0  0  0  0
  111.4020  150.2410  157.9010 O   0  0  0  0  0  0  0  0  0  0  0  0
  112.4680  147.8380  150.4110 C   0  0  0  0  0  0  0  0  0  0  0  0
  107.4630  147.9730  158.4200 O   0  0  0  0  0  0  0  0  0  0  0  0
  112.8740  146.5200  150.5140 C   0  0  0  0  0  0  0  0  0  0  0  0
  112.0840  145.6600  151.2710 C   0  0  0  0  0  0  0  0  0  0  0  0
  112.2310  149.9680  149.6130 C   0  0  0  0  0  0  0  0  0  0  0  0
  111.2090  149.7430  150.7040 C   0  0  0  0  0  0  0  0  0  0  0  0
  109.8990  150.4760  150.7080 C   0  0  0  0  0  0  0  0  0  0  0  0
  110.9450  150.8100  151.7250 C   0  0  0  0  0  0  0  0  0  0  0  0
  109.4120  148.2350  153.7240 C   0  0  0  0  0  0  0  0  0  0  0  0
  108.1850  148.3940  154.3360 C   0  0  0  0  0  0  0  0  0  0  0  0
  108.1760  148.6820  155.6850 C   0  0  0  0  0  0  0  0  0  0  0  0
  109.3770  148.8020  156.3540 C   0  0  0  0  0  0  0  0  0  0  0  0
  110.5520  148.6280  155.6460 C   0  0  0  0  0  0  0  0  0  0  0  0
  108.4060  148.6940  158.6870 C   0  0  0  0  0  0  0  0  0  0  0  0
  109.9230  150.0360  159.8440 C   0  0  0  0  0  0  0  0  0  0  0  0
  110.3810  149.8380  158.4040 C   0  0  0  0  0  0  0  0  0  0  0  0
  109.6980  151.5070  160.1770 C   0  0  0  0  0  0  0  0  0  0  0  0
  110.9250  152.1850  160.7610 C   0  0  0  0  0  0  0  0  0  0  0  0
  1  4  2  0  0  0  0
  4  6  1  0  0  0  0
  4  7  1  0  0  0  0
  3 10  1  0  0  0  0
  7 10  2  0  0  0  0
 10 12  1  0  0  0  0
  1 13  1  0  0  0  0
 12 13  2  0  0  0  0
  3 14  1  0  0  0  0
  7 15  1  0  0  0  0
 14 15  1  0  0  0  0
 15 16  1  0  0  0  0
 15 17  1  0  0  0  0
 16 17  1  0  0  0  0
  2 18  2  0  0  0  0
  6 18  1  0  0  0  0
 18 19  1  0  0  0  0
 19 20  2  0  0  0  0
  5 21  1  0  0  0  0
 20 21  1  0  0  0  0
  2 22  1  0  0  0  0
 21 22  2  0  0  0  0
  5 23  1  0  0  0  0
  8 23  1  0  0  0  0
 11 23  2  0  0  0  0
  8 24  1  0  0  0  0
  5 25  1  0  0  0  0
  9 25  2  0  0  0  0
 24 25  1  0  0  0  0
 24 26  1  0  0  0  0
 26 27  1  0  0  0  0
M  END
$$$$
