8JR9
  PyMOL3.1          3D                             0

 75 79  0  0  0  0  0  0  0  0999 V2000
  116.4820  107.9810  108.5450 C   0  0  0  0  0  0  0  0  0  0  0  0
  118.3810  110.9340  104.1080 N   0  0  0  0  0  0  0  0  0  0  0  0
  116.9380  111.4080  106.1480 O   0  0  0  0  0  0  0  0  0  0  0  0
  116.9280  110.6800  104.8990 S   0  0  0  0  0  0  0  0  0  0  0  0
  115.8070  106.9790  107.6290 C   0  0  0  0  0  0  0  0  0  0  0  0
  121.5460  109.9690  102.9220 N   0  0  0  0  0  0  0  0  0  0  0  0
  115.8460  111.3320  104.1970 O   0  0  0  0  0  0  0  0  0  0  0  0
  115.7610  105.6530  107.9820 C   0  0  0  0  0  0  0  0  0  0  0  0
  123.0100  111.4720  101.8360 N   0  0  0  0  0  0  0  0  0  0  0  0
  121.7440  113.3780  102.1990 O   0  0  0  0  0  0  0  0  0  0  0  0
  115.1450  104.7640  107.1380 C   0  0  0  0  0  0  0  0  0  0  0  0
  115.0710  103.3620  107.4330 N   0  0  0  0  0  0  0  0  0  0  0  0
  126.4620  105.9650  100.9280 O   0  0  0  0  0  0  0  0  0  0  0  0
  114.5830  105.1800  105.9590 C   0  0  0  0  0  0  0  0  0  0  0  0
  114.3030  101.2130  108.0260 N   0  0  0  0  0  0  0  0  0  0  0  0
  112.8510  103.0660  108.1180 O   0  0  0  0  0  0  0  0  0  0  0  0
  114.6300  106.5010  105.6070 C   0  0  0  0  0  0  0  0  0  0  0  0
  116.3320  100.1260  107.6360 O   0  0  0  0  0  0  0  0  0  0  0  0
  113.9990  106.9410  104.2950 C   0  0  0  0  0  0  0  0  0  0  0  0
  115.2320  107.3970  106.4510 C   0  0  0  0  0  0  0  0  0  0  0  0
  115.3050  108.8530  106.0400 C   0  0  0  0  0  0  0  0  0  0  0  0
  116.5440  108.9550  105.1670 C   0  0  0  0  0  0  0  0  0  0  0  0
  119.6130  111.2280  104.9260 C   0  0  0  0  0  0  0  0  0  0  0  0
  120.5340  112.0790  104.1000 C   0  0  0  0  0  0  0  0  0  0  0  0
  120.9900  111.2800  103.0060 C   0  0  0  0  0  0  0  0  0  0  0  0
  119.9240  110.8980  102.1170 C   0  0  0  0  0  0  0  0  0  0  0  0
  118.7700  110.2150  102.8340 C   0  0  0  0  0  0  0  0  0  0  0  0
  122.8060  110.0740  102.1960 C   0  0  0  0  0  0  0  0  0  0  0  0
  121.8980  112.2200  102.3200 C   0  0  0  0  0  0  0  0  0  0  0  0
  123.7700  108.9640  101.8570 C   0  0  0  0  0  0  0  0  0  0  0  0
  125.0380  109.0050  102.3770 C   0  0  0  0  0  0  0  0  0  0  0  0
  125.9390  108.0100  102.0730 C   0  0  0  0  0  0  0  0  0  0  0  0
  125.5580  106.9790  101.2460 C   0  0  0  0  0  0  0  0  0  0  0  0
  126.8120  105.1490  101.9980 C   0  0  0  0  0  0  0  0  0  0  0  0
  124.2840  106.9400  100.7260 C   0  0  0  0  0  0  0  0  0  0  0  0
  123.3860  107.9390  101.0300 C   0  0  0  0  0  0  0  0  0  0  0  0
  113.9090  102.6170  107.8930 C   0  0  0  0  0  0  0  0  0  0  0  0
  115.6800  101.1070  107.6490 C   0  0  0  0  0  0  0  0  0  0  0  0
  116.1480  102.4530  107.2670 C   0  0  0  0  0  0  0  0  0  0  0  0
  117.3020  102.8760  108.1400 C   0  0  0  0  0  0  0  0  0  0  0  0
  116.5620  102.4480  105.8140 C   0  0  0  0  0  0  0  0  0  0  0  0
  127.3800  104.0050  101.5190 F   0  0  0  0  0  0  0  0  0  0  0  0
  127.7170  105.8050  102.7730 F   0  0  0  0  0  0  0  0  0  0  0  0
  125.6980  104.8470  102.7200 F   0  0  0  0  0  0  0  0  0  0  0  0
  115.7400  108.6730  108.9320 H   0  0  0  0  0  0  0  0  0  0  0  0
  117.2350  108.5310  107.9860 H   0  0  0  0  0  0  0  0  0  0  0  0
  116.9540  107.4530  109.3700 H   0  0  0  0  0  0  0  0  0  0  0  0
  116.3680  108.4740  104.2120 H   0  0  0  0  0  0  0  0  0  0  0  0
  117.3760  108.4730  105.6680 H   0  0  0  0  0  0  0  0  0  0  0  0
  120.1080  110.2970  105.1750 H   0  0  0  0  0  0  0  0  0  0  0  0
  119.3420  111.7620  105.8290 H   0  0  0  0  0  0  0  0  0  0  0  0
  119.9810  112.9360  103.7310 H   0  0  0  0  0  0  0  0  0  0  0  0
  121.3790  112.3990  104.7000 H   0  0  0  0  0  0  0  0  0  0  0  0
  120.3090  110.2260  101.3560 H   0  0  0  0  0  0  0  0  0  0  0  0
  119.5460  111.7940  101.6380 H   0  0  0  0  0  0  0  0  0  0  0  0
  119.0530  109.1990  103.0810 H   0  0  0  0  0  0  0  0  0  0  0  0
  117.9110  110.1960  102.1720 H   0  0  0  0  0  0  0  0  0  0  0  0
  125.3310  109.8240  103.0240 H   0  0  0  0  0  0  0  0  0  0  0  0
  126.9410  108.0440  102.4840 H   0  0  0  0  0  0  0  0  0  0  0  0
  123.9900  106.1260  100.0760 H   0  0  0  0  0  0  0  0  0  0  0  0
  122.3820  107.9160  100.6230 H   0  0  0  0  0  0  0  0  0  0  0  0
  116.9620  102.9540  109.1690 H   0  0  0  0  0  0  0  0  0  0  0  0
  118.0910  102.1340  108.0740 H   0  0  0  0  0  0  0  0  0  0  0  0
  117.6800  103.8360  107.8030 H   0  0  0  0  0  0  0  0  0  0  0  0
  117.2260  101.6090  105.6290 H   0  0  0  0  0  0  0  0  0  0  0  0
  115.6770  102.3590  105.1910 H   0  0  0  0  0  0  0  0  0  0  0  0
  117.0750  103.3770  105.5850 H   0  0  0  0  0  0  0  0  0  0  0  0
  116.2050  105.3130  108.9100 H   0  0  0  0  0  0  0  0  0  0  0  0
  114.1050  104.4590  105.3060 H   0  0  0  0  0  0  0  0  0  0  0  0
  114.7630  107.3360  103.6330 H   0  0  0  0  0  0  0  0  0  0  0  0
  113.5250  106.0860  103.8240 H   0  0  0  0  0  0  0  0  0  0  0  0
  113.2520  107.7050  104.4880 H   0  0  0  0  0  0  0  0  0  0  0  0
  114.4280  109.1400  105.4740 H   0  0  0  0  0  0  0  0  0  0  0  0
  115.4040  109.4970  106.9050 H   0  0  0  0  0  0  0  0  0  0  0  0
  113.7170  100.4640  108.3360 H   0  0  0  0  0  0  0  0  0  0  0  0
  2  4  1  0  0  0  0
  3  4  2  0  0  0  0
  1  5  1  0  0  0  0
  4  7  2  0  0  0  0
  5  8  2  0  0  0  0
  8 11  1  0  0  0  0
 11 12  1  0  0  0  0
 11 14  2  0  0  0  0
 14 17  1  0  0  0  0
 17 19  1  0  0  0  0
  5 20  1  0  0  0  0
 17 20  2  0  0  0  0
 20 21  1  0  0  0  0
  4 22  1  0  0  0  0
 21 22  1  0  0  0  0
  2 23  1  0  0  0  0
 23 24  1  0  0  0  0
  6 25  1  0  0  0  0
 24 25  1  0  0  0  0
 25 26  1  0  0  0  0
  2 27  1  0  0  0  0
 26 27  1  0  0  0  0
  6 28  2  0  0  0  0
  9 28  1  0  0  0  0
  9 29  1  0  0  0  0
 10 29  2  0  0  0  0
 25 29  1  0  0  0  0
 28 30  1  0  0  0  0
 30 31  1  0  0  0  0
 31 32  2  0  0  0  0
 13 33  1  0  0  0  0
 32 33  1  0  0  0  0
 13 34  1  0  0  0  0
 33 35  2  0  0  0  0
 30 36  2  0  0  0  0
 35 36  1  0  0  0  0
 12 37  1  0  0  0  0
 15 37  1  0  0  0  0
 16 37  2  0  0  0  0
 15 38  1  0  0  0  0
 18 38  2  0  0  0  0
 12 39  1  0  0  0  0
 38 39  1  0  0  0  0
 39 40  1  0  0  0  0
 39 41  1  0  0  0  0
 34 42  1  0  0  0  0
 34 43  1  0  0  0  0
 34 44  1  0  0  0  0
  1 45  1  0  0  0  0
  1 46  1  0  0  0  0
  1 47  1  0  0  0  0
 22 48  1  0  0  0  0
 22 49  1  0  0  0  0
 23 50  1  0  0  0  0
 23 51  1  0  0  0  0
 24 52  1  0  0  0  0
 24 53  1  0  0  0  0
 26 54  1  0  0  0  0
 26 55  1  0  0  0  0
 27 56  1  0  0  0  0
 27 57  1  0  0  0  0
 31 58  1  0  0  0  0
 32 59  1  0  0  0  0
 35 60  1  0  0  0  0
 36 61  1  0  0  0  0
 40 62  1  0  0  0  0
 40 63  1  0  0  0  0
 40 64  1  0  0  0  0
 41 65  1  0  0  0  0
 41 66  1  0  0  0  0
 41 67  1  0  0  0  0
  8 68  1  0  0  0  0
 14 69  1  0  0  0  0
 19 70  1  0  0  0  0
 19 71  1  0  0  0  0
 19 72  1  0  0  0  0
 21 73  1  0  0  0  0
 21 74  1  0  0  0  0
 15 75  1  0  0  0  0
M  END
$$$$
