6X2J
  PyMOL3.1          3D                             0

 45 47  0  0  0  0  0  0  0  0999 V2000
  144.0820  147.4360  185.0710 C   0  0  0  0  0  0  0  0  0  0  0  0
  144.2160  146.5400  186.1760 O   0  0  0  0  0  0  0  0  0  0  0  0
  145.1820  145.5660  186.1330 C   0  0  0  0  0  0  0  0  0  0  0  0
  146.0450  145.3270  185.0680 C   0  0  0  0  0  0  0  0  0  0  0  0
  147.0270  144.3610  185.1790 C   0  0  0  0  0  0  0  0  0  0  0  0
  147.1790  143.6620  186.3680 C   0  0  0  0  0  0  0  0  0  0  0  0
  146.3250  143.9060  187.4370 C   0  0  0  0  0  0  0  0  0  0  0  0
  145.3070  144.8440  187.3080 C   0  0  0  0  0  0  0  0  0  0  0  0
  146.6180  143.2570  188.6550 N   0  0  0  0  0  0  0  0  0  0  0  0
  147.0940  143.8840  189.7540 C   0  0  0  0  0  0  0  0  0  0  0  0
  147.2180  145.0920  189.8280 O   0  0  0  0  0  0  0  0  0  0  0  0
  147.5380  143.0070  190.8480 C   0  0  0  0  0  0  0  0  0  0  0  0
  147.9930  143.4030  192.0840 C   0  0  0  0  0  0  0  0  0  0  0  0
  148.2370  142.2510  192.7310 N   0  0  0  0  0  0  0  0  0  0  0  0
  147.9590  141.1900  191.9470 N   0  0  0  0  0  0  0  0  0  0  0  0
  147.5360  141.6520  190.7980 N   0  0  0  0  0  0  0  0  0  0  0  0
  148.7550  142.0190  194.0770 C   0  0  0  0  0  0  0  0  0  0  0  0
  147.7740  142.3780  195.1640 C   0  0  0  0  0  0  0  0  0  0  0  0
  146.4590  142.7420  194.9080 C   0  0  0  0  0  0  0  0  0  0  0  0
  145.6180  143.1320  195.9280 C   0  0  0  0  0  0  0  0  0  0  0  0
  146.1050  143.2150  197.1970 C   0  0  0  0  0  0  0  0  0  0  0  0
  147.3870  142.8400  197.5070 C   0  0  0  0  0  0  0  0  0  0  0  0
  148.1800  142.4190  196.4770 C   0  0  0  0  0  0  0  0  0  0  0  0
  148.2160  144.6090  192.5920 N   0  0  0  0  0  0  0  0  0  0  0  0
  148.1460  142.7260  186.6250 O   0  0  0  0  0  0  0  0  0  0  0  0
  149.2230  142.5740  185.6970 C   0  0  0  0  0  0  0  0  0  0  0  0
  145.0140  143.9690  198.5450 Br  0  0  0  0  0  0  0  0  0  0  0  0
  149.4180  141.9870  196.7590 F   0  0  0  0  0  0  0  0  0  0  0  0
  144.9840  148.0460  185.1160 H   0  0  0  0  0  0  0  0  0  0  0  0
  143.9430  146.9830  184.0930 H   0  0  0  0  0  0  0  0  0  0  0  0
  143.2440  148.1120  185.2320 H   0  0  0  0  0  0  0  0  0  0  0  0
  146.0820  145.8330  184.1050 H   0  0  0  0  0  0  0  0  0  0  0  0
  147.6080  144.1900  184.2750 H   0  0  0  0  0  0  0  0  0  0  0  0
  144.6020  145.0170  188.1180 H   0  0  0  0  0  0  0  0  0  0  0  0
  146.4520  142.2560  188.6840 H   0  0  0  0  0  0  0  0  0  0  0  0
  149.0290  140.9680  194.1560 H   0  0  0  0  0  0  0  0  0  0  0  0
  149.7000  142.5320  194.2300 H   0  0  0  0  0  0  0  0  0  0  0  0
  146.0710  142.7350  193.8920 H   0  0  0  0  0  0  0  0  0  0  0  0
  144.5540  143.2880  195.7790 H   0  0  0  0  0  0  0  0  0  0  0  0
  147.7530  142.8620  198.5300 H   0  0  0  0  0  0  0  0  0  0  0  0
  148.0840  145.4070  191.9810 H   0  0  0  0  0  0  0  0  0  0  0  0
  148.0750  144.7840  193.5820 H   0  0  0  0  0  0  0  0  0  0  0  0
  149.8280  141.8230  186.2030 H   0  0  0  0  0  0  0  0  0  0  0  0
  148.9420  142.1250  184.7460 H   0  0  0  0  0  0  0  0  0  0  0  0
  149.8370  143.4610  185.5520 H   0  0  0  0  0  0  0  0  0  0  0  0
  1  2  1  0  0  0  0
  2  3  1  0  0  0  0
  3  4  1  0  0  0  0
  4  5  2  0  0  0  0
  5  6  1  0  0  0  0
  6  7  2  0  0  0  0
  3  8  2  0  0  0  0
  7  8  1  0  0  0  0
  7  9  1  0  0  0  0
  9 10  1  0  0  0  0
 10 11  2  0  0  0  0
 10 12  1  0  0  0  0
 12 13  2  0  0  0  0
 13 14  1  0  0  0  0
 14 15  1  0  0  0  0
 12 16  1  0  0  0  0
 15 16  2  0  0  0  0
 14 17  1  0  0  0  0
 17 18  1  0  0  0  0
 18 19  2  0  0  0  0
 19 20  1  0  0  0  0
 20 21  2  0  0  0  0
 21 22  1  0  0  0  0
 18 23  1  0  0  0  0
 22 23  2  0  0  0  0
 13 24  1  0  0  0  0
  6 25  1  0  0  0  0
 25 26  1  0  0  0  0
 21 27  1  0  0  0  0
 23 28  1  0  0  0  0
  1 29  1  0  0  0  0
  1 30  1  0  0  0  0
  1 31  1  0  0  0  0
  4 32  1  0  0  0  0
  5 33  1  0  0  0  0
  8 34  1  0  0  0  0
  9 35  1  0  0  0  0
 17 36  1  0  0  0  0
 17 37  1  0  0  0  0
 19 38  1  0  0  0  0
 20 39  1  0  0  0  0
 22 40  1  0  0  0  0
 24 41  1  0  0  0  0
 24 42  1  0  0  0  0
 26 43  1  0  0  0  0
 26 44  1  0  0  0  0
 26 45  1  0  0  0  0
M  END
$$$$
