6X2J
  PyMOL3.1          3D                             0

 45 47  0  0  0  0  0  0  0  0999 V2000
  147.3010  179.5840  184.8620 C   0  0  0  0  0  0  0  0  0  0  0  0
  146.3590  179.5190  185.9360 O   0  0  0  0  0  0  0  0  0  0  0  0
  145.3700  178.5680  185.8990 C   0  0  0  0  0  0  0  0  0  0  0  0
  145.1460  177.6730  184.8590 C   0  0  0  0  0  0  0  0  0  0  0  0
  144.1930  176.6800  184.9950 C   0  0  0  0  0  0  0  0  0  0  0  0
  143.4950  176.5490  186.1870 C   0  0  0  0  0  0  0  0  0  0  0  0
  143.7230  177.4370  187.2320 C   0  0  0  0  0  0  0  0  0  0  0  0
  144.6400  178.4700  187.0730 C   0  0  0  0  0  0  0  0  0  0  0  0
  143.1060  177.1470  188.4690 N   0  0  0  0  0  0  0  0  0  0  0  0
  143.7920  176.7270  189.5560 C   0  0  0  0  0  0  0  0  0  0  0  0
  145.0100  176.7020  189.5890 O   0  0  0  0  0  0  0  0  0  0  0  0
  142.9860  176.2440  190.6890 C   0  0  0  0  0  0  0  0  0  0  0  0
  143.4580  175.8090  191.9060 C   0  0  0  0  0  0  0  0  0  0  0  0
  142.3480  175.4920  192.5940 N   0  0  0  0  0  0  0  0  0  0  0  0
  141.2440  175.7040  191.8530 N   0  0  0  0  0  0  0  0  0  0  0  0
  141.6340  176.1600  190.6900 N   0  0  0  0  0  0  0  0  0  0  0  0
  142.2010  174.9870  193.9570 C   0  0  0  0  0  0  0  0  0  0  0  0
  142.4510  176.0440  195.0030 C   0  0  0  0  0  0  0  0  0  0  0  0
  142.7640  177.3620  194.6980 C   0  0  0  0  0  0  0  0  0  0  0  0
  143.0840  178.2650  195.6900 C   0  0  0  0  0  0  0  0  0  0  0  0
  143.1430  177.8390  196.9820 C   0  0  0  0  0  0  0  0  0  0  0  0
  142.7880  176.5650  197.3410 C   0  0  0  0  0  0  0  0  0  0  0  0
  142.4380  175.7090  196.3360 C   0  0  0  0  0  0  0  0  0  0  0  0
  144.6940  175.6220  192.3570 N   0  0  0  0  0  0  0  0  0  0  0  0
  142.5800  175.5710  186.4710 O   0  0  0  0  0  0  0  0  0  0  0  0
  142.4470  174.4720  185.5670 C   0  0  0  0  0  0  0  0  0  0  0  0
  143.8830  178.9880  198.2890 Br  0  0  0  0  0  0  0  0  0  0  0  0
  142.0500  174.4620  196.6650 F   0  0  0  0  0  0  0  0  0  0  0  0
  147.8860  178.6720  184.9730 H   0  0  0  0  0  0  0  0  0  0  0  0
  146.8970  179.6870  183.8580 H   0  0  0  0  0  0  0  0  0  0  0  0
  147.9900  180.4120  185.0150 H   0  0  0  0  0  0  0  0  0  0  0  0
  145.6470  177.6190  183.8950 H   0  0  0  0  0  0  0  0  0  0  0  0
  144.0300  176.0780  184.1040 H   0  0  0  0  0  0  0  0  0  0  0  0
  144.7920  179.2120  187.8550 H   0  0  0  0  0  0  0  0  0  0  0  0
  142.0990  177.2660  188.5200 H   0  0  0  0  0  0  0  0  0  0  0  0
  141.2100  174.5490  194.0660 H   0  0  0  0  0  0  0  0  0  0  0  0
  142.8820  174.1510  194.1060 H   0  0  0  0  0  0  0  0  0  0  0  0
  142.7720  177.7040  193.6650 H   0  0  0  0  0  0  0  0  0  0  0  0
  143.2060  179.3270  195.4970 H   0  0  0  0  0  0  0  0  0  0  0  0
  142.7890  176.2510  198.3820 H   0  0  0  0  0  0  0  0  0  0  0  0
  145.4640  175.7570  191.7130 H   0  0  0  0  0  0  0  0  0  0  0  0
  144.9140  175.7020  193.3450 H   0  0  0  0  0  0  0  0  0  0  0  0
  141.7140  173.8590  186.0890 H   0  0  0  0  0  0  0  0  0  0  0  0
  141.9850  174.7230  184.6130 H   0  0  0  0  0  0  0  0  0  0  0  0
  143.3500  173.8790  185.4270 H   0  0  0  0  0  0  0  0  0  0  0  0
  1  2  1  0  0  0  0
  2  3  1  0  0  0  0
  3  4  1  0  0  0  0
  4  5  2  0  0  0  0
  5  6  1  0  0  0  0
  6  7  2  0  0  0  0
  3  8  2  0  0  0  0
  7  8  1  0  0  0  0
  7  9  1  0  0  0  0
  9 10  1  0  0  0  0
 10 11  2  0  0  0  0
 10 12  1  0  0  0  0
 12 13  2  0  0  0  0
 13 14  1  0  0  0  0
 14 15  1  0  0  0  0
 12 16  1  0  0  0  0
 15 16  2  0  0  0  0
 14 17  1  0  0  0  0
 17 18  1  0  0  0  0
 18 19  2  0  0  0  0
 19 20  1  0  0  0  0
 20 21  2  0  0  0  0
 21 22  1  0  0  0  0
 18 23  1  0  0  0  0
 22 23  2  0  0  0  0
 13 24  1  0  0  0  0
  6 25  1  0  0  0  0
 25 26  1  0  0  0  0
 21 27  1  0  0  0  0
 23 28  1  0  0  0  0
  1 29  1  0  0  0  0
  1 30  1  0  0  0  0
  1 31  1  0  0  0  0
  4 32  1  0  0  0  0
  5 33  1  0  0  0  0
  8 34  1  0  0  0  0
  9 35  1  0  0  0  0
 17 36  1  0  0  0  0
 17 37  1  0  0  0  0
 19 38  1  0  0  0  0
 20 39  1  0  0  0  0
 22 40  1  0  0  0  0
 24 41  1  0  0  0  0
 24 42  1  0  0  0  0
 26 43  1  0  0  0  0
 26 44  1  0  0  0  0
 26 45  1  0  0  0  0
M  END
$$$$
