7U4O
  PyMOL3.1          3D                             0

 24 26  0  0  0  0  0  0  0  0999 V2000
   -2.3062   58.8200   -8.4623 C   0  0  0  0  0  0  0  0  0  0  0  0
   -1.5997   60.0061   -7.8002 C   0  0  0  0  0  0  0  0  0  0  0  0
   -0.9467   59.7344   -6.4111 C   0  0  0  0  0  0  0  0  0  0  0  0
   -0.6323   60.8850   -5.4584 C   0  0  0  0  0  0  0  0  0  0  0  0
   -0.9152   62.5524   -5.8936 S   0  0  0  0  0  0  0  0  0  0  0  0
   -0.3461   63.2208   -4.3985 C   0  0  0  0  0  0  0  0  0  0  0  0
    0.0607   62.2420   -3.5631 C   0  0  0  0  0  0  0  0  0  0  0  0
    0.6096   62.3806   -2.1945 C   0  0  0  0  0  0  0  0  0  0  0  0
    1.4382   61.1790   -1.6465 C   0  0  0  0  0  0  0  0  0  0  0  0
    1.0593   59.8340   -2.1614 C   0  0  0  0  0  0  0  0  0  0  0  0
    1.3687   58.6001   -1.5562 C   0  0  0  0  0  0  0  0  0  0  0  0
    1.0221   57.3753   -2.0329 N   0  0  0  0  0  0  0  0  0  0  0  0
    0.3193   57.3544   -3.1839 C   0  0  0  0  0  0  0  0  0  0  0  0
   -0.1887   55.7537   -3.9060 S   0  0  0  0  0  0  0  0  0  0  0  0
   -0.9251   55.8697   -5.6723 C   0  0  0  0  0  0  0  0  0  0  0  0
   -0.0518   55.3355   -6.8181 C   0  0  0  0  0  0  0  0  0  0  0  0
    1.1404   55.5357   -6.7974 O   0  0  0  0  0  0  0  0  0  0  0  0
   -0.6417   54.5214   -8.0192 C   0  0  0  0  0  0  0  0  0  0  0  0
   -0.4583   55.3057   -9.3360 C   0  0  0  0  0  0  0  0  0  0  0  0
   -2.1354   54.2843   -7.8056 C   0  0  0  0  0  0  0  0  0  0  0  0
    0.0846   53.1899   -8.1171 C   0  0  0  0  0  0  0  0  0  0  0  0
   -0.0401   58.4796   -3.8626 N   0  0  0  0  0  0  0  0  0  0  0  0
    0.3135   59.7028   -3.3705 C   0  0  0  0  0  0  0  0  0  0  0  0
   -0.1080   60.8959   -4.1729 C   0  0  0  0  0  0  0  0  0  0  0  0
  1  2  1  0  0  0  0
  2  3  1  0  0  0  0
  3  4  1  0  0  0  0
  4  5  1  0  0  0  0
  5  6  1  0  0  0  0
  6  7  2  0  0  0  0
  7  8  1  0  0  0  0
  8  9  1  0  0  0  0
  9 10  1  0  0  0  0
 10 11  1  0  0  0  0
 11 12  2  0  0  0  0
 12 13  1  0  0  0  0
 13 14  1  0  0  0  0
 14 15  1  0  0  0  0
 15 16  1  0  0  0  0
 16 17  2  0  0  0  0
 16 18  1  0  0  0  0
 18 19  1  0  0  0  0
 18 20  1  0  0  0  0
 18 21  1  0  0  0  0
 13 22  2  0  0  0  0
 10 23  2  0  0  0  0
 22 23  1  0  0  0  0
  4 24  2  0  0  0  0
  7 24  1  0  0  0  0
 23 24  1  0  0  0  0
M  END
$$$$
