7U4O
  PyMOL3.1          3D                             0

 24 26  0  0  0  0  0  0  0  0999 V2000
  -30.3746   23.0754  -32.1578 C   0  0  0  0  0  0  0  0  0  0  0  0
  -30.8977   24.2699  -32.9547 C   0  0  0  0  0  0  0  0  0  0  0  0
  -32.0467   25.0887  -32.2993 C   0  0  0  0  0  0  0  0  0  0  0  0
  -32.8463   26.0940  -33.1223 C   0  0  0  0  0  0  0  0  0  0  0  0
  -32.4503   26.4500  -34.7858 S   0  0  0  0  0  0  0  0  0  0  0  0
  -33.7156   27.6037  -35.0216 C   0  0  0  0  0  0  0  0  0  0  0  0
  -34.4447   27.7500  -33.8950 C   0  0  0  0  0  0  0  0  0  0  0  0
  -35.6139   28.6284  -33.6782 C   0  0  0  0  0  0  0  0  0  0  0  0
  -35.9572   28.9854  -32.2067 C   0  0  0  0  0  0  0  0  0  0  0  0
  -35.6124   27.9569  -31.1863 C   0  0  0  0  0  0  0  0  0  0  0  0
  -36.1636   27.8661  -29.8959 C   0  0  0  0  0  0  0  0  0  0  0  0
  -35.8508   26.9284  -28.9642 N   0  0  0  0  0  0  0  0  0  0  0  0
  -34.9281   26.0072  -29.3216 C   0  0  0  0  0  0  0  0  0  0  0  0
  -34.4544   24.7202  -28.1186 S   0  0  0  0  0  0  0  0  0  0  0  0
  -32.9346   23.6580  -28.6134 C   0  0  0  0  0  0  0  0  0  0  0  0
  -31.6405   23.9803  -27.8653 C   0  0  0  0  0  0  0  0  0  0  0  0
  -31.3598   25.1326  -27.6368 O   0  0  0  0  0  0  0  0  0  0  0  0
  -30.6741   22.8909  -27.3471 C   0  0  0  0  0  0  0  0  0  0  0  0
  -31.1210   21.4863  -27.8061 C   0  0  0  0  0  0  0  0  0  0  0  0
  -30.7012   22.9429  -25.8304 C   0  0  0  0  0  0  0  0  0  0  0  0
  -29.2726   23.1701  -27.8653 C   0  0  0  0  0  0  0  0  0  0  0  0
  -34.3188   25.9851  -30.5467 N   0  0  0  0  0  0  0  0  0  0  0  0
  -34.6522   26.9384  -31.4756 C   0  0  0  0  0  0  0  0  0  0  0  0
  -33.9482   26.8758  -32.8009 C   0  0  0  0  0  0  0  0  0  0  0  0
  1  2  1  0  0  0  0
  2  3  1  0  0  0  0
  3  4  1  0  0  0  0
  4  5  1  0  0  0  0
  5  6  1  0  0  0  0
  6  7  2  0  0  0  0
  7  8  1  0  0  0  0
  8  9  1  0  0  0  0
  9 10  1  0  0  0  0
 10 11  1  0  0  0  0
 11 12  2  0  0  0  0
 12 13  1  0  0  0  0
 13 14  1  0  0  0  0
 14 15  1  0  0  0  0
 15 16  1  0  0  0  0
 16 17  2  0  0  0  0
 16 18  1  0  0  0  0
 18 19  1  0  0  0  0
 18 20  1  0  0  0  0
 18 21  1  0  0  0  0
 13 22  2  0  0  0  0
 10 23  2  0  0  0  0
 22 23  1  0  0  0  0
  4 24  2  0  0  0  0
  7 24  1  0  0  0  0
 23 24  1  0  0  0  0
M  END
$$$$
