7U4O
  PyMOL3.1          3D                             0

 24 26  0  0  0  0  0  0  0  0999 V2000
   -3.5754    2.8605    6.1326 C   0  0  0  0  0  0  0  0  0  0  0  0
   -3.2505    1.3929    6.4225 C   0  0  0  0  0  0  0  0  0  0  0  0
   -4.1850    0.6500    7.4277 C   0  0  0  0  0  0  0  0  0  0  0  0
   -3.6029   -0.2331    8.5411 C   0  0  0  0  0  0  0  0  0  0  0  0
   -1.8939   -0.3104    8.8736 S   0  0  0  0  0  0  0  0  0  0  0  0
   -2.0097   -1.4367   10.1794 C   0  0  0  0  0  0  0  0  0  0  0  0
   -3.2967   -1.7768   10.3920 C   0  0  0  0  0  0  0  0  0  0  0  0
   -3.8420   -2.7096   11.4034 C   0  0  0  0  0  0  0  0  0  0  0  0
   -5.2088   -3.3577   11.0544 C   0  0  0  0  0  0  0  0  0  0  0  0
   -6.1574   -2.4781   10.3247 C   0  0  0  0  0  0  0  0  0  0  0  0
   -7.5529   -2.6113   10.3074 C   0  0  0  0  0  0  0  0  0  0  0  0
   -8.4157   -1.8059    9.6420 N   0  0  0  0  0  0  0  0  0  0  0  0
   -7.8746   -0.7930    8.9416 C   0  0  0  0  0  0  0  0  0  0  0  0
   -8.9824    0.3263    8.0226 S   0  0  0  0  0  0  0  0  0  0  0  0
   -8.1000    1.5834    6.8604 C   0  0  0  0  0  0  0  0  0  0  0  0
   -8.1793    1.3027    5.3538 C   0  0  0  0  0  0  0  0  0  0  0  0
   -8.1280    0.1607    4.9598 O   0  0  0  0  0  0  0  0  0  0  0  0
   -8.3419    2.4354    4.2944 C   0  0  0  0  0  0  0  0  0  0  0  0
   -8.8089    3.7510    4.9598 C   0  0  0  0  0  0  0  0  0  0  0  0
   -9.4105    1.9868    3.2946 C   0  0  0  0  0  0  0  0  0  0  0  0
   -7.0177    2.6860    3.5812 C   0  0  0  0  0  0  0  0  0  0  0  0
   -6.5292   -0.5531    8.8778 N   0  0  0  0  0  0  0  0  0  0  0  0
   -5.6775   -1.3762    9.5598 C   0  0  0  0  0  0  0  0  0  0  0  0
   -4.2130   -1.0823    9.4510 C   0  0  0  0  0  0  0  0  0  0  0  0
  1  2  1  0  0  0  0
  2  3  1  0  0  0  0
  3  4  1  0  0  0  0
  4  5  1  0  0  0  0
  5  6  1  0  0  0  0
  6  7  2  0  0  0  0
  7  8  1  0  0  0  0
  8  9  1  0  0  0  0
  9 10  1  0  0  0  0
 10 11  1  0  0  0  0
 11 12  2  0  0  0  0
 12 13  1  0  0  0  0
 13 14  1  0  0  0  0
 14 15  1  0  0  0  0
 15 16  1  0  0  0  0
 16 17  2  0  0  0  0
 16 18  1  0  0  0  0
 18 19  1  0  0  0  0
 18 20  1  0  0  0  0
 18 21  1  0  0  0  0
 13 22  2  0  0  0  0
 10 23  2  0  0  0  0
 22 23  1  0  0  0  0
  4 24  2  0  0  0  0
  7 24  1  0  0  0  0
 23 24  1  0  0  0  0
M  END
$$$$
