8YUU
  PyMOL3.1          3D                             0

  8  8  0  0  0  0  0  0  0  0999 V2000
   92.8230  121.3020  111.0980 N   0  0  0  0  0  0  0  0  0  0  0  0
   91.5820  121.9290  111.5370 C   0  0  0  0  0  0  0  0  0  0  0  0
   90.5930  120.8830  112.0510 C   0  0  0  0  0  0  0  0  0  0  0  0
   89.1620  121.2830  111.7950 C   0  0  0  0  0  0  0  0  0  0  0  0
   88.5980  122.4810  111.5390 C   0  0  0  0  0  0  0  0  0  0  0  0
   88.1750  120.3740  111.7990 N   0  0  0  0  0  0  0  0  0  0  0  0
   87.0250  121.0620  111.5390 C   0  0  0  0  0  0  0  0  0  0  0  0
   87.2460  122.3430  111.3740 N   0  0  0  0  0  0  0  0  0  0  0  0
  1  2  1  0  0  0  0
  2  3  1  0  0  0  0
  3  4  1  0  0  0  0
  4  5  2  0  0  0  0
  4  6  1  0  0  0  0
  6  7  2  0  0  0  0
  5  8  1  0  0  0  0
  7  8  1  0  0  0  0
M  END
$$$$
