8BHO
  PyMOL3.1          3D                             0

 44 47  0  0  0  0  0  0  0  0999 V2000
  186.3965  185.4829  194.5393 N   0  0  0  0  0  0  0  0  0  0  0  0
  184.2066  191.3292  194.0051 C   0  0  0  0  0  0  0  0  0  0  0  0
  184.7316  189.3643  195.2580 O   0  0  0  0  0  0  0  0  0  0  0  0
  184.0090  190.6316  195.2964 C   0  0  0  0  0  0  0  0  0  0  0  0
  184.3810  186.0473  195.3043 N   0  0  0  0  0  0  0  0  0  0  0  0
  183.1694  188.5225  193.8881 O   0  0  0  0  0  0  0  0  0  0  0  0
  184.1792  188.3887  194.5336 C   0  0  0  0  0  0  0  0  0  0  0  0
  187.7319  187.0594  192.1498 N   0  0  0  0  0  0  0  0  0  0  0  0
  187.7629  185.2568  190.8193 O   0  0  0  0  0  0  0  0  0  0  0  0
  184.9401  187.1204  194.6259 C   0  0  0  0  0  0  0  0  0  0  0  0
  191.0521  182.5532  193.6965 O   0  0  0  0  0  0  0  0  0  0  0  0
  186.1898  186.7951  194.1374 C   0  0  0  0  0  0  0  0  0  0  0  0
  185.2800  185.0949  195.2281 C   0  0  0  0  0  0  0  0  0  0  0  0
  187.5806  184.7317  194.2792 C   0  0  0  0  0  0  0  0  0  0  0  0
  188.0330  183.8607  195.2636 C   0  0  0  0  0  0  0  0  0  0  0  0
  189.1936  183.1337  195.0657 C   0  0  0  0  0  0  0  0  0  0  0  0
  189.9040  183.2742  193.8848 C   0  0  0  0  0  0  0  0  0  0  0  0
  189.4652  184.1362  192.8914 C   0  0  0  0  0  0  0  0  0  0  0  0
  188.2955  184.8724  193.0787 C   0  0  0  0  0  0  0  0  0  0  0  0
  187.9056  185.7429  191.9256 C   0  0  0  0  0  0  0  0  0  0  0  0
  187.1430  187.6432  193.3556 C   0  0  0  0  0  0  0  0  0  0  0  0
  186.5687  188.9623  192.8339 C   0  0  0  0  0  0  0  0  0  0  0  0
  187.5825  189.3864  191.7823 C   0  0  0  0  0  0  0  0  0  0  0  0
  188.0938  188.0867  191.1599 C   0  0  0  0  0  0  0  0  0  0  0  0
  190.9172  181.1603  193.4288 C   0  0  0  0  0  0  0  0  0  0  0  0
  187.9682  187.8398  194.0380 H   0  0  0  0  0  0  0  0  0  0  0  0
  183.8631  190.7461  193.1522 H   0  0  0  0  0  0  0  0  0  0  0  0
  183.6593  192.2704  193.9921 H   0  0  0  0  0  0  0  0  0  0  0  0
  185.2508  191.5681  193.8116 H   0  0  0  0  0  0  0  0  0  0  0  0
  182.9540  190.4483  195.4911 H   0  0  0  0  0  0  0  0  0  0  0  0
  184.3856  191.2140  196.1358 H   0  0  0  0  0  0  0  0  0  0  0  0
  185.1580  184.1038  195.6619 H   0  0  0  0  0  0  0  0  0  0  0  0
  187.4850  183.7391  196.1965 H   0  0  0  0  0  0  0  0  0  0  0  0
  189.5532  182.4509  195.8340 H   0  0  0  0  0  0  0  0  0  0  0  0
  190.0217  184.2470  191.9622 H   0  0  0  0  0  0  0  0  0  0  0  0
  186.4695  189.7036  193.6239 H   0  0  0  0  0  0  0  0  0  0  0  0
  185.5700  188.8477  192.4175 H   0  0  0  0  0  0  0  0  0  0  0  0
  187.1548  190.0538  191.0361 H   0  0  0  0  0  0  0  0  0  0  0  0
  188.3929  189.9604  192.2283 H   0  0  0  0  0  0  0  0  0  0  0  0
  189.1673  188.0886  190.9800 H   0  0  0  0  0  0  0  0  0  0  0  0
  187.6328  187.8838  190.1944 H   0  0  0  0  0  0  0  0  0  0  0  0
  191.8033  180.5782  193.6761 H   0  0  0  0  0  0  0  0  0  0  0  0
  190.7443  181.1294  192.3543 H   0  0  0  0  0  0  0  0  0  0  0  0
  190.0546  180.7347  193.9378 H   0  0  0  0  0  0  0  0  0  0  0  0
  2  4  1  0  0  0  0
  3  4  1  0  0  0  0
  3  7  1  0  0  0  0
  6  7  2  0  0  0  0
  5 10  1  0  0  0  0
  7 10  1  0  0  0  0
  1 12  1  0  0  0  0
 10 12  2  0  0  0  0
  1 13  1  0  0  0  0
  5 13  2  0  0  0  0
  1 14  1  0  0  0  0
 14 15  2  0  0  0  0
 15 16  1  0  0  0  0
 11 17  1  0  0  0  0
 16 17  2  0  0  0  0
 17 18  1  0  0  0  0
 14 19  1  0  0  0  0
 18 19  2  0  0  0  0
  8 20  1  0  0  0  0
  9 20  2  0  0  0  0
 19 20  1  0  0  0  0
  8 21  1  0  0  0  0
 12 21  1  0  0  0  0
 21 22  1  0  0  0  0
 22 23  1  0  0  0  0
  8 24  1  0  0  0  0
 23 24  1  0  0  0  0
 11 25  1  0  0  0  0
 21 26  1  0  0  0  0
  2 27  1  0  0  0  0
  2 28  1  0  0  0  0
  2 29  1  0  0  0  0
  4 30  1  0  0  0  0
  4 31  1  0  0  0  0
 13 32  1  0  0  0  0
 15 33  1  0  0  0  0
 16 34  1  0  0  0  0
 18 35  1  0  0  0  0
 22 36  1  0  0  0  0
 22 37  1  0  0  0  0
 23 38  1  0  0  0  0
 23 39  1  0  0  0  0
 24 40  1  0  0  0  0
 24 41  1  0  0  0  0
 25 42  1  0  0  0  0
 25 43  1  0  0  0  0
 25 44  1  0  0  0  0
M  END
$$$$
