8W8L
  PyMOL3.1          3D                             0

 30 33  0  0  0  0  0  0  0  0999 V2000
   -2.5700   16.3460   23.8330 C   0  0  0  0  0  0  0  0  0  0  0  0
   -3.1930   16.3730   25.1040 C   0  0  0  0  0  0  0  0  0  0  0  0
   -1.7330   17.4270   23.4900 C   0  0  0  0  0  0  0  0  0  0  0  0
   -1.5090   18.5160   24.3270 C   0  0  0  0  0  0  0  0  0  0  0  0
   -2.1550   18.5090   25.5690 C   0  0  0  0  0  0  0  0  0  0  0  0
   -2.9610   17.4810   25.9550 C   0  0  0  0  0  0  0  0  0  0  0  0
   -0.5580   19.6210   24.0010 C   0  0  0  0  0  0  0  0  0  0  0  0
   -0.0910   19.8440   22.7000 C   0  0  0  0  0  0  0  0  0  0  0  0
    0.7370   20.9170   22.4090 C   0  0  0  0  0  0  0  0  0  0  0  0
    1.1070   21.7650   23.4250 C   0  0  0  0  0  0  0  0  0  0  0  0
    0.6620   21.5890   24.7250 C   0  0  0  0  0  0  0  0  0  0  0  0
   -0.1590   20.5060   25.0030 C   0  0  0  0  0  0  0  0  0  0  0  0
    0.9440   22.8080   25.9790 S   0  0  0  0  0  0  0  0  0  0  0  0
    2.5190   23.1780   25.9600 N   0  0  0  0  0  0  0  0  0  0  0  0
    3.4830   22.4180   26.4990 C   0  0  0  0  0  0  0  0  0  0  0  0
    4.8570   23.0470   26.3500 C   0  0  0  0  0  0  0  0  0  0  0  0
    3.3310   21.3100   27.0050 O   0  0  0  0  0  0  0  0  0  0  0  0
    5.3040   23.0930   24.8890 C   0  0  0  0  0  0  0  0  0  0  0  0
    6.1700   21.8560   24.7370 C   0  0  0  0  0  0  0  0  0  0  0  0
    6.8890   21.7870   26.0330 C   0  0  0  0  0  0  0  0  0  0  0  0
    5.8640   22.1880   27.0390 N   0  3  0  0  0  0  0  0  0  0  0  0
   -4.0690   15.2590   25.3930 C   0  0  0  0  0  0  0  0  0  0  0  0
   -4.2560   14.3010   24.5060 N   0  0  0  0  0  0  0  0  0  0  0  0
   -3.6120   14.3970   23.3400 C   0  0  0  0  0  0  0  0  0  0  0  0
   -2.7850   15.3410   22.9340 N   0  0  0  0  0  0  0  0  0  0  0  0
   -4.7190   15.1600   26.5620 N   0  0  0  0  0  0  0  0  0  0  0  0
    0.2740   24.0120   25.5930 O   0  0  0  0  0  0  0  0  0  0  0  0
    0.6920   22.2230   27.2600 O   0  0  0  0  0  0  0  0  0  0  0  0
    2.0190   22.7370   23.1660 F   0  0  0  0  0  0  0  0  0  0  0  0
   -1.0870   17.3330   22.3170 F   0  0  0  0  0  0  0  0  0  0  0  0
  1  2  2  0  0  0  0
  1  3  1  0  0  0  0
  3  4  2  0  0  0  0
  4  5  1  0  0  0  0
  2  6  1  0  0  0  0
  5  6  2  0  0  0  0
  4  7  1  0  0  0  0
  7  8  1  0  0  0  0
  8  9  2  0  0  0  0
  9 10  1  0  0  0  0
 10 11  2  0  0  0  0
  7 12  2  0  0  0  0
 11 12  1  0  0  0  0
 11 13  1  0  0  0  0
 13 14  1  0  0  0  0
 14 15  1  0  0  0  0
 15 16  1  0  0  0  0
 15 17  2  0  0  0  0
 16 18  1  0  0  0  0
 18 19  1  0  0  0  0
 19 20  1  0  0  0  0
 16 21  1  0  0  0  0
 20 21  1  0  0  0  0
  2 22  1  0  0  0  0
 22 23  2  0  0  0  0
 23 24  1  0  0  0  0
  1 25  1  0  0  0  0
 24 25  2  0  0  0  0
 22 26  1  0  0  0  0
 13 27  2  0  0  0  0
 13 28  2  0  0  0  0
 10 29  1  0  0  0  0
  3 30  1  0  0  0  0
M  END
$$$$
