8THH
  PyMOL3.1          3D                             0

 16 17  0  0  0  0  0  0  0  0999 V2000
  133.5350  131.6350  132.2540 Cl  0  0  0  0  0  0  0  0  0  0  0  0
  131.2240  129.6130  132.9720 Cl  0  0  0  0  0  0  0  0  0  0  0  0
  136.8370  130.4960  131.1450 N   0  0  0  0  0  0  0  0  0  0  0  0
  137.9140  132.1450  133.1400 N   0  0  0  0  0  0  0  0  0  0  0  0
  136.3840  131.2330  134.7270 N   0  0  0  0  0  0  0  0  0  0  0  0
  137.8610  131.3590  130.8640 N   0  0  0  0  0  0  0  0  0  0  0  0
  139.3340  132.8840  131.3390 N   0  0  0  0  0  0  0  0  0  0  0  0
  135.2590  129.5390  132.7430 C   0  0  0  0  0  0  0  0  0  0  0  0
  136.3990  130.4950  132.3940 C   0  0  0  0  0  0  0  0  0  0  0  0
  133.9370  129.9570  132.7030 C   0  0  0  0  0  0  0  0  0  0  0  0
  135.5560  128.2330  133.0930 C   0  0  0  0  0  0  0  0  0  0  0  0
  136.9280  131.3070  133.3840 C   0  0  0  0  0  0  0  0  0  0  0  0
  132.9220  129.0710  133.0210 C   0  0  0  0  0  0  0  0  0  0  0  0
  134.5380  127.3490  133.4080 C   0  0  0  0  0  0  0  0  0  0  0  0
  133.2200  127.7680  133.3740 C   0  0  0  0  0  0  0  0  0  0  0  0
  138.2700  132.0720  131.8950 C   0  0  0  0  0  0  0  0  0  0  0  0
  3  6  2  0  0  0  0
  3  9  1  0  0  0  0
  8  9  1  0  0  0  0
  1 10  1  0  0  0  0
  8 10  2  0  0  0  0
  8 11  1  0  0  0  0
  4 12  1  0  0  0  0
  5 12  1  0  0  0  0
  9 12  2  0  0  0  0
  2 13  1  0  0  0  0
 10 13  1  0  0  0  0
 11 14  2  0  0  0  0
 13 15  2  0  0  0  0
 14 15  1  0  0  0  0
  4 16  2  0  0  0  0
  6 16  1  0  0  0  0
  7 16  1  0  0  0  0
M  END
$$$$
