8THH
  PyMOL3.1          3D                             0

 32 34  0  0  0  0  0  0  0  0999 V2000
  133.5350  131.6350  132.2540 Cl  0  0  0  0  0  0  0  0  0  0  0  0
  131.2240  129.6130  132.9720 Cl  0  0  0  0  0  0  0  0  0  0  0  0
  136.8370  130.4960  131.1450 N   0  0  0  0  0  0  0  0  0  0  0  0
  137.9140  132.1450  133.1400 N   0  0  0  0  0  0  0  0  0  0  0  0
  136.3840  131.2330  134.7270 N   0  0  0  0  0  0  0  0  0  0  0  0
  137.8610  131.3590  130.8640 N   0  0  0  0  0  0  0  0  0  0  0  0
  139.3340  132.8840  131.3390 N   0  0  0  0  0  0  0  0  0  0  0  0
  135.2590  129.5390  132.7430 C   0  0  0  0  0  0  0  0  0  0  0  0
  136.3990  130.4950  132.3940 C   0  0  0  0  0  0  0  0  0  0  0  0
  133.9370  129.9570  132.7030 C   0  0  0  0  0  0  0  0  0  0  0  0
  135.5560  128.2330  133.0930 C   0  0  0  0  0  0  0  0  0  0  0  0
  136.9280  131.3070  133.3840 C   0  0  0  0  0  0  0  0  0  0  0  0
  132.9220  129.0710  133.0210 C   0  0  0  0  0  0  0  0  0  0  0  0
  134.5380  127.3490  133.4080 C   0  0  0  0  0  0  0  0  0  0  0  0
  133.2200  127.7680  133.3740 C   0  0  0  0  0  0  0  0  0  0  0  0
  138.2700  132.0720  131.8950 C   0  0  0  0  0  0  0  0  0  0  0  0
  132.1800  133.0530  111.9020 Cl  0  0  0  0  0  0  0  0  0  0  0  0
  130.8800  132.0370  109.1830 Cl  0  0  0  0  0  0  0  0  0  0  0  0
  130.8740  132.7030  114.9220 N   0  0  0  0  0  0  0  0  0  0  0  0
  130.8140  135.4430  115.5020 N   0  0  0  0  0  0  0  0  0  0  0  0
  129.5820  135.8300  113.4940 N   0  0  0  0  0  0  0  0  0  0  0  0
  131.4650  133.1880  116.0550 N   0  0  0  0  0  0  0  0  0  0  0  0
  132.0500  134.7550  117.4470 N   0  0  0  0  0  0  0  0  0  0  0  0
  129.6110  133.1130  112.8650 C   0  0  0  0  0  0  0  0  0  0  0  0
  130.2830  133.5960  114.1460 C   0  0  0  0  0  0  0  0  0  0  0  0
  130.4150  132.8340  111.7780 C   0  0  0  0  0  0  0  0  0  0  0  0
  128.2450  132.9430  112.7920 C   0  0  0  0  0  0  0  0  0  0  0  0
  130.2560  134.9460  114.4230 C   0  0  0  0  0  0  0  0  0  0  0  0
  129.8460  132.3920  110.5970 C   0  0  0  0  0  0  0  0  0  0  0  0
  127.6740  132.5020  111.6130 C   0  0  0  0  0  0  0  0  0  0  0  0
  128.4730  132.2270  110.5170 C   0  0  0  0  0  0  0  0  0  0  0  0
  131.3590  134.4950  116.2000 C   0  0  0  0  0  0  0  0  0  0  0  0
  3  6  2  0  0  0  0
  3  9  1  0  0  0  0
  8  9  1  0  0  0  0
  1 10  1  0  0  0  0
  8 10  2  0  0  0  0
  8 11  1  0  0  0  0
  4 12  1  0  0  0  0
  5 12  1  0  0  0  0
  9 12  2  0  0  0  0
  2 13  1  0  0  0  0
 10 13  1  0  0  0  0
 11 14  2  0  0  0  0
 13 15  2  0  0  0  0
 14 15  1  0  0  0  0
  4 16  2  0  0  0  0
  6 16  1  0  0  0  0
  7 16  1  0  0  0  0
 19 22  2  0  0  0  0
 19 25  1  0  0  0  0
 24 25  1  0  0  0  0
 17 26  1  0  0  0  0
 24 26  2  0  0  0  0
 24 27  1  0  0  0  0
 20 28  1  0  0  0  0
 21 28  1  0  0  0  0
 25 28  2  0  0  0  0
 18 29  1  0  0  0  0
 26 29  1  0  0  0  0
 27 30  2  0  0  0  0
 29 31  2  0  0  0  0
 30 31  1  0  0  0  0
 20 32  2  0  0  0  0
 22 32  1  0  0  0  0
 23 32  1  0  0  0  0
M  END
$$$$
