8R7Q
  PyMOL3.1          3D                             0

 48 51  0  0  0  0  0  0  0  0999 V2000
  125.9910  121.7040   91.2700 N   0  0  0  0  0  0  0  0  0  0  0  0
  123.6410  120.6760   97.0510 C   0  0  0  0  0  0  0  0  0  0  0  0
  124.6030  121.6400   96.6340 O   0  0  0  0  0  0  0  0  0  0  0  0
  124.9840  121.7040   95.3180 C   0  0  0  0  0  0  0  0  0  0  0  0
  127.1750  126.5550   95.3490 N   0  0  0  0  0  0  0  0  0  0  0  0
  129.1010  125.0900   93.3140 O   0  0  0  0  0  0  0  0  0  0  0  0
  125.8940  122.6300   94.8750 C   0  0  0  0  0  0  0  0  0  0  0  0
  126.2700  122.6710   93.5070 C   0  0  0  0  0  0  0  0  0  0  0  0
  127.2060  123.6070   92.9790 C   0  0  0  0  0  0  0  0  0  0  0  0
  127.4890  123.5490   91.6410 C   0  0  0  0  0  0  0  0  0  0  0  0
  126.8610  122.5870   90.8340 C   0  0  0  0  0  0  0  0  0  0  0  0
  125.6890  121.7380   92.6030 C   0  0  0  0  0  0  0  0  0  0  0  0
  124.7550  120.7980   93.0990 C   0  0  0  0  0  0  0  0  0  0  0  0
  124.4120  120.7790   94.4120 C   0  0  0  0  0  0  0  0  0  0  0  0
  127.8780  124.6440   93.8710 C   0  0  0  0  0  0  0  0  0  0  0  0
  126.9160  125.8320   94.0790 C   0  0  0  0  0  0  0  0  0  0  0  0
  126.8900  126.8280   92.8980 C   0  0  0  0  0  0  0  0  0  0  0  0
  126.6310  128.2190   93.4710 C   0  0  0  0  0  0  0  0  0  0  0  0
  127.8760  128.6620   94.2300 C   0  0  0  0  0  0  0  0  0  0  0  0
  128.2940  127.4960   95.1440 C   0  0  0  0  0  0  0  0  0  0  0  0
  125.9770  127.3510   95.6850 C   0  0  0  0  0  0  0  0  0  0  0  0
  125.4490  128.1310   94.4530 C   0  0  0  0  0  0  0  0  0  0  0  0
  124.2250  127.5200   93.8400 C   0  0  0  0  0  0  0  0  0  0  0  0
  123.7330  127.7850   92.6770 C   0  0  0  0  0  0  0  0  0  0  0  0
  129.6160  124.4040   93.1910 H   0  0  0  0  0  0  0  0  0  0  0  0
  128.0620  124.2350   94.7510 H   0  0  0  0  0  0  0  0  0  0  0  0
  126.0170  125.4470   94.1550 H   0  0  0  0  0  0  0  0  0  0  0  0
  128.5820  127.8490   96.0160 H   0  0  0  0  0  0  0  0  0  0  0  0
  129.0510  127.0160   94.7410 H   0  0  0  0  0  0  0  0  0  0  0  0
  128.6000  128.8760   93.5960 H   0  0  0  0  0  0  0  0  0  0  0  0
  127.6780  129.4640   94.7680 H   0  0  0  0  0  0  0  0  0  0  0  0
  126.2020  127.9810   96.4000 H   0  0  0  0  0  0  0  0  0  0  0  0
  125.2790  126.7520   96.0200 H   0  0  0  0  0  0  0  0  0  0  0  0
  125.2230  129.0460   94.7430 H   0  0  0  0  0  0  0  0  0  0  0  0
  123.7670  126.8740   94.3640 H   0  0  0  0  0  0  0  0  0  0  0  0
  124.1590  128.4180   92.1140 H   0  0  0  0  0  0  0  0  0  0  0  0
  122.9450  127.3470   92.3840 H   0  0  0  0  0  0  0  0  0  0  0  0
  126.4220  128.8540   92.7490 H   0  0  0  0  0  0  0  0  0  0  0  0
  127.7460  126.8140   92.4220 H   0  0  0  0  0  0  0  0  0  0  0  0
  126.1830  126.5850   92.2640 H   0  0  0  0  0  0  0  0  0  0  0  0
  128.1050  124.1540   91.2610 H   0  0  0  0  0  0  0  0  0  0  0  0
  127.0770  122.5720   89.9110 H   0  0  0  0  0  0  0  0  0  0  0  0
  126.2730  123.2470   95.4840 H   0  0  0  0  0  0  0  0  0  0  0  0
  124.3650  120.1730   92.5060 H   0  0  0  0  0  0  0  0  0  0  0  0
  123.7860  120.1400   94.7170 H   0  0  0  0  0  0  0  0  0  0  0  0
  123.4860  120.7700   98.0050 H   0  0  0  0  0  0  0  0  0  0  0  0
  123.9750  119.7850   96.8650 H   0  0  0  0  0  0  0  0  0  0  0  0
  122.8080  120.8200   96.5730 H   0  0  0  0  0  0  0  0  0  0  0  0
  2  3  1  0  0  0  0
  3  4  1  0  0  0  0
  4  7  2  0  0  0  0
  7  8  1  0  0  0  0
  8  9  2  0  0  0  0
  9 10  1  0  0  0  0
  1 11  1  0  0  0  0
 10 11  2  0  0  0  0
  1 12  2  0  0  0  0
  8 12  1  0  0  0  0
 12 13  1  0  0  0  0
  4 14  1  0  0  0  0
 13 14  2  0  0  0  0
  6 15  1  0  0  0  0
  9 15  1  0  0  0  0
  5 16  1  0  0  0  0
 15 16  1  0  0  0  0
 16 17  1  0  0  0  0
 17 18  1  0  0  0  0
 18 19  1  0  0  0  0
  5 20  1  0  0  0  0
 19 20  1  0  0  0  0
  5 21  1  0  0  0  0
 18 22  1  0  0  0  0
 21 22  1  0  0  0  0
 22 23  1  0  0  0  0
 23 24  2  0  0  0  0
  6 25  1  0  0  0  0
 15 26  1  0  0  0  0
 16 27  1  0  0  0  0
 20 28  1  0  0  0  0
 20 29  1  0  0  0  0
 19 30  1  0  0  0  0
 19 31  1  0  0  0  0
 21 32  1  0  0  0  0
 21 33  1  0  0  0  0
 22 34  1  0  0  0  0
 23 35  1  0  0  0  0
 24 36  1  0  0  0  0
 24 37  1  0  0  0  0
 18 38  1  0  0  0  0
 17 39  1  0  0  0  0
 17 40  1  0  0  0  0
 10 41  1  0  0  0  0
 11 42  1  0  0  0  0
  7 43  1  0  0  0  0
 13 44  1  0  0  0  0
 14 45  1  0  0  0  0
  2 46  1  0  0  0  0
  2 47  1  0  0  0  0
  2 48  1  0  0  0  0
M  END
$$$$
