8R7Q
  PyMOL3.1          3D                             0

 48 51  0  0  0  0  0  0  0  0999 V2000
  120.0710  131.9770  172.8610 N   0  0  0  0  0  0  0  0  0  0  0  0
  118.0300  130.4470  167.0750 C   0  0  0  0  0  0  0  0  0  0  0  0
  119.3440  130.7990  167.4960 O   0  0  0  0  0  0  0  0  0  0  0  0
  119.5850  131.1000  168.8120 C   0  0  0  0  0  0  0  0  0  0  0  0
  124.9300  130.5880  168.8460 N   0  0  0  0  0  0  0  0  0  0  0  0
  124.5520  133.0100  170.8250 O   0  0  0  0  0  0  0  0  0  0  0  0
  120.8390  131.4290  169.2590 C   0  0  0  0  0  0  0  0  0  0  0  0
  121.0570  131.7360  170.6270 C   0  0  0  0  0  0  0  0  0  0  0  0
  122.3320  132.0840  171.1610 C   0  0  0  0  0  0  0  0  0  0  0  0
  122.4180  132.3600  172.4990 C   0  0  0  0  0  0  0  0  0  0  0  0
  121.2670  132.2930  173.3010 C   0  0  0  0  0  0  0  0  0  0  0  0
  119.9550  131.6970  171.5270 C   0  0  0  0  0  0  0  0  0  0  0  0
  118.6770  131.3540  171.0270 C   0  0  0  0  0  0  0  0  0  0  0  0
  118.4940  131.0640  169.7140 C   0  0  0  0  0  0  0  0  0  0  0  0
  123.5710  132.1510  170.2750 C   0  0  0  0  0  0  0  0  0  0  0  0
  124.1400  130.7280  170.0940 C   0  0  0  0  0  0  0  0  0  0  0  0
  124.9640  130.2280  171.3030 C   0  0  0  0  0  0  0  0  0  0  0  0
  126.0610  129.3120  170.7660 C   0  0  0  0  0  0  0  0  0  0  0  0
  127.0790  130.1700  170.0250 C   0  0  0  0  0  0  0  0  0  0  0  0
  126.2940  131.1000  169.0830 C   0  0  0  0  0  0  0  0  0  0  0  0
  125.0420  129.1500  168.5260 C   0  0  0  0  0  0  0  0  0  0  0  0
  125.4260  128.3180  169.7780 C   0  0  0  0  0  0  0  0  0  0  0  0
  124.2750  127.5610  170.3680 C   0  0  0  0  0  0  0  0  0  0  0  0
  124.2460  126.9850  171.5220 C   0  0  0  0  0  0  0  0  0  0  0  0
  124.2030  133.7970  170.9320 H   0  0  0  0  0  0  0  0  0  0  0  0
  123.3090  132.4970  169.3870 H   0  0  0  0  0  0  0  0  0  0  0  0
  123.3650  130.1330  170.0040 H   0  0  0  0  0  0  0  0  0  0  0  0
  126.7660  131.1700  168.2220 H   0  0  0  0  0  0  0  0  0  0  0  0
  126.2390  131.9990  169.4770 H   0  0  0  0  0  0  0  0  0  0  0  0
  127.6930  129.5980  169.5080 H   0  0  0  0  0  0  0  0  0  0  0  0
  127.6070  130.7010  170.6680 H   0  0  0  0  0  0  0  0  0  0  0  0
  124.1870  128.8340  168.1710 H   0  0  0  0  0  0  0  0  0  0  0  0
  125.7210  129.0290  167.8310 H   0  0  0  0  0  0  0  0  0  0  0  0
  126.1180  127.6670  169.5130 H   0  0  0  0  0  0  0  0  0  0  0  0
  123.4890  127.5020  169.8370 H   0  0  0  0  0  0  0  0  0  0  0  0
  123.4670  126.5230  171.8030 H   0  0  0  0  0  0  0  0  0  0  0  0
  125.0020  127.0280  172.0930 H   0  0  0  0  0  0  0  0  0  0  0  0
  126.4910  128.8240  171.5050 H   0  0  0  0  0  0  0  0  0  0  0  0
  124.3890  129.7400  171.9280 H   0  0  0  0  0  0  0  0  0  0  0  0
  125.3610  130.9860  171.7800 H   0  0  0  0  0  0  0  0  0  0  0  0
  123.2470  132.5940  172.8820 H   0  0  0  0  0  0  0  0  0  0  0  0
  121.3580  132.4900  174.2240 H   0  0  0  0  0  0  0  0  0  0  0  0
  121.5650  131.4500  168.6520 H   0  0  0  0  0  0  0  0  0  0  0  0
  117.9390  131.3260  171.6180 H   0  0  0  0  0  0  0  0  0  0  0  0
  117.6300  130.8390  169.4060 H   0  0  0  0  0  0  0  0  0  0  0  0
  118.0360  130.2650  166.1210 H   0  0  0  0  0  0  0  0  0  0  0  0
  117.7370  129.6540  167.5520 H   0  0  0  0  0  0  0  0  0  0  0  0
  117.4230  131.1810  167.2590 H   0  0  0  0  0  0  0  0  0  0  0  0
  2  3  1  0  0  0  0
  3  4  1  0  0  0  0
  4  7  2  0  0  0  0
  7  8  1  0  0  0  0
  8  9  2  0  0  0  0
  9 10  1  0  0  0  0
  1 11  1  0  0  0  0
 10 11  2  0  0  0  0
  1 12  2  0  0  0  0
  8 12  1  0  0  0  0
 12 13  1  0  0  0  0
  4 14  1  0  0  0  0
 13 14  2  0  0  0  0
  6 15  1  0  0  0  0
  9 15  1  0  0  0  0
  5 16  1  0  0  0  0
 15 16  1  0  0  0  0
 16 17  1  0  0  0  0
 17 18  1  0  0  0  0
 18 19  1  0  0  0  0
  5 20  1  0  0  0  0
 19 20  1  0  0  0  0
  5 21  1  0  0  0  0
 18 22  1  0  0  0  0
 21 22  1  0  0  0  0
 22 23  1  0  0  0  0
 23 24  2  0  0  0  0
  6 25  1  0  0  0  0
 15 26  1  0  0  0  0
 16 27  1  0  0  0  0
 20 28  1  0  0  0  0
 20 29  1  0  0  0  0
 19 30  1  0  0  0  0
 19 31  1  0  0  0  0
 21 32  1  0  0  0  0
 21 33  1  0  0  0  0
 22 34  1  0  0  0  0
 23 35  1  0  0  0  0
 24 36  1  0  0  0  0
 24 37  1  0  0  0  0
 18 38  1  0  0  0  0
 17 39  1  0  0  0  0
 17 40  1  0  0  0  0
 10 41  1  0  0  0  0
 11 42  1  0  0  0  0
  7 43  1  0  0  0  0
 13 44  1  0  0  0  0
 14 45  1  0  0  0  0
  2 46  1  0  0  0  0
  2 47  1  0  0  0  0
  2 48  1  0  0  0  0
M  END
$$$$
