8R7Q
  PyMOL3.1          3D                             0

 48 51  0  0  0  0  0  0  0  0999 V2000
  120.1370  132.0330   91.2410 N   0  0  0  0  0  0  0  0  0  0  0  0
  117.9850  133.5880   96.9810 C   0  0  0  0  0  0  0  0  0  0  0  0
  119.3090  133.2470   96.5840 O   0  0  0  0  0  0  0  0  0  0  0  0
  119.5740  132.9380   95.2740 C   0  0  0  0  0  0  0  0  0  0  0  0
  124.8080  133.5330   95.4000 N   0  0  0  0  0  0  0  0  0  0  0  0
  124.6110  131.1060   93.3480 O   0  0  0  0  0  0  0  0  0  0  0  0
  120.8400  132.6220   94.8490 C   0  0  0  0  0  0  0  0  0  0  0  0
  121.0840  132.3060   93.4880 C   0  0  0  0  0  0  0  0  0  0  0  0
  122.3720  131.9730   92.9780 C   0  0  0  0  0  0  0  0  0  0  0  0
  122.4830  131.6870   91.6440 C   0  0  0  0  0  0  0  0  0  0  0  0
  121.3450  131.7300   90.8230 C   0  0  0  0  0  0  0  0  0  0  0  0
  119.9950  132.3230   92.5700 C   0  0  0  0  0  0  0  0  0  0  0  0
  118.7050  132.6530   93.0480 C   0  0  0  0  0  0  0  0  0  0  0  0
  118.4980  132.9510   94.3550 C   0  0  0  0  0  0  0  0  0  0  0  0
  123.5950  131.9310   93.8870 C   0  0  0  0  0  0  0  0  0  0  0  0
  124.1200  133.3670   94.0960 C   0  0  0  0  0  0  0  0  0  0  0  0
  125.0260  133.8750   92.9510 C   0  0  0  0  0  0  0  0  0  0  0  0
  126.0620  134.8140   93.5620 C   0  0  0  0  0  0  0  0  0  0  0  0
  127.0340  133.9790   94.3880 C   0  0  0  0  0  0  0  0  0  0  0  0
  126.1940  133.0420   95.2740 C   0  0  0  0  0  0  0  0  0  0  0  0
  124.8690  134.9750   95.7150 C   0  0  0  0  0  0  0  0  0  0  0  0
  125.3360  135.8030   94.4890 C   0  0  0  0  0  0  0  0  0  0  0  0
  124.2220  136.5360   93.8040 C   0  0  0  0  0  0  0  0  0  0  0  0
  124.2710  137.0990   92.6440 C   0  0  0  0  0  0  0  0  0  0  0  0
  124.2880  130.3110   93.2230 H   0  0  0  0  0  0  0  0  0  0  0  0
  123.3250  131.5680   94.7650 H   0  0  0  0  0  0  0  0  0  0  0  0
  123.3290  133.9470   94.1200 H   0  0  0  0  0  0  0  0  0  0  0  0
  126.1840  132.1400   94.8830 H   0  0  0  0  0  0  0  0  0  0  0  0
  126.5980  132.9850   96.1690 H   0  0  0  0  0  0  0  0  0  0  0  0
  127.6200  133.4540   93.7940 H   0  0  0  0  0  0  0  0  0  0  0  0
  127.5950  134.5670   94.9470 H   0  0  0  0  0  0  0  0  0  0  0  0
  125.4890  135.1130   96.4600 H   0  0  0  0  0  0  0  0  0  0  0  0
  123.9830  135.2780   95.9990 H   0  0  0  0  0  0  0  0  0  0  0  0
  125.9940  136.4680   94.8020 H   0  0  0  0  0  0  0  0  0  0  0  0
  123.3980  136.5890   94.2750 H   0  0  0  0  0  0  0  0  0  0  0  0
  123.5090  137.5450   92.3010 H   0  0  0  0  0  0  0  0  0  0  0  0
  125.0670  137.0590   92.1310 H   0  0  0  0  0  0  0  0  0  0  0  0
  126.5410  135.3030   92.8550 H   0  0  0  0  0  0  0  0  0  0  0  0
  125.4720  133.1220   92.5100 H   0  0  0  0  0  0  0  0  0  0  0  0
  124.4920  134.3490   92.2800 H   0  0  0  0  0  0  0  0  0  0  0  0
  123.3210  131.4610   91.2770 H   0  0  0  0  0  0  0  0  0  0  0  0
  121.4530  131.5270   89.9030 H   0  0  0  0  0  0  0  0  0  0  0  0
  121.5560  132.6160   95.4680 H   0  0  0  0  0  0  0  0  0  0  0  0
  117.9760  132.6650   92.4450 H   0  0  0  0  0  0  0  0  0  0  0  0
  117.6260  133.1670   94.6470 H   0  0  0  0  0  0  0  0  0  0  0  0
  117.9740  133.7780   97.9330 H   0  0  0  0  0  0  0  0  0  0  0  0
  117.6920  134.3740   96.4930 H   0  0  0  0  0  0  0  0  0  0  0  0
  117.3890  132.8470   96.7940 H   0  0  0  0  0  0  0  0  0  0  0  0
  2  3  1  0  0  0  0
  3  4  1  0  0  0  0
  4  7  2  0  0  0  0
  7  8  1  0  0  0  0
  8  9  2  0  0  0  0
  9 10  1  0  0  0  0
  1 11  1  0  0  0  0
 10 11  2  0  0  0  0
  1 12  2  0  0  0  0
  8 12  1  0  0  0  0
 12 13  1  0  0  0  0
  4 14  1  0  0  0  0
 13 14  2  0  0  0  0
  6 15  1  0  0  0  0
  9 15  1  0  0  0  0
  5 16  1  0  0  0  0
 15 16  1  0  0  0  0
 16 17  1  0  0  0  0
 17 18  1  0  0  0  0
 18 19  1  0  0  0  0
  5 20  1  0  0  0  0
 19 20  1  0  0  0  0
  5 21  1  0  0  0  0
 18 22  1  0  0  0  0
 21 22  1  0  0  0  0
 22 23  1  0  0  0  0
 23 24  2  0  0  0  0
  6 25  1  0  0  0  0
 15 26  1  0  0  0  0
 16 27  1  0  0  0  0
 20 28  1  0  0  0  0
 20 29  1  0  0  0  0
 19 30  1  0  0  0  0
 19 31  1  0  0  0  0
 21 32  1  0  0  0  0
 21 33  1  0  0  0  0
 22 34  1  0  0  0  0
 23 35  1  0  0  0  0
 24 36  1  0  0  0  0
 24 37  1  0  0  0  0
 18 38  1  0  0  0  0
 17 39  1  0  0  0  0
 17 40  1  0  0  0  0
 10 41  1  0  0  0  0
 11 42  1  0  0  0  0
  7 43  1  0  0  0  0
 13 44  1  0  0  0  0
 14 45  1  0  0  0  0
  2 46  1  0  0  0  0
  2 47  1  0  0  0  0
  2 48  1  0  0  0  0
M  END
$$$$
