8R7Q
  PyMOL3.1          3D                             0

 48 51  0  0  0  0  0  0  0  0999 V2000
  125.8570  142.4750  172.8840 N   0  0  0  0  0  0  0  0  0  0  0  0
  123.6560  143.3190  167.0160 C   0  0  0  0  0  0  0  0  0  0  0  0
  124.6280  142.3880  167.4810 O   0  0  0  0  0  0  0  0  0  0  0  0
  124.9720  142.3610  168.8090 C   0  0  0  0  0  0  0  0  0  0  0  0
  127.2640  137.5670  168.9460 N   0  0  0  0  0  0  0  0  0  0  0  0
  129.0930  139.1060  171.0190 O   0  0  0  0  0  0  0  0  0  0  0  0
  125.8880  141.4660  169.3000 C   0  0  0  0  0  0  0  0  0  0  0  0
  126.2240  141.4630  170.6790 C   0  0  0  0  0  0  0  0  0  0  0  0
  127.1620  140.5600  171.2570 C   0  0  0  0  0  0  0  0  0  0  0  0
  127.4040  140.6550  172.6010 C   0  0  0  0  0  0  0  0  0  0  0  0
  126.7310  141.6210  173.3660 C   0  0  0  0  0  0  0  0  0  0  0  0
  125.5960  142.4040  171.5430 C   0  0  0  0  0  0  0  0  0  0  0  0
  124.6580  143.3130  170.9980 C   0  0  0  0  0  0  0  0  0  0  0  0
  124.3540  143.2940  169.6760 C   0  0  0  0  0  0  0  0  0  0  0  0
  127.8830  139.5180  170.4100 C   0  0  0  0  0  0  0  0  0  0  0  0
  126.9490  138.3090  170.1920 C   0  0  0  0  0  0  0  0  0  0  0  0
  126.9000  137.3340  171.3910 C   0  0  0  0  0  0  0  0  0  0  0  0
  126.6820  135.9290  170.8360 C   0  0  0  0  0  0  0  0  0  0  0  0
  127.9590  135.4930  170.1270 C   0  0  0  0  0  0  0  0  0  0  0  0
  128.3890  136.6490  169.2080 C   0  0  0  0  0  0  0  0  0  0  0  0
  126.0910  136.7440  168.5850 C   0  0  0  0  0  0  0  0  0  0  0  0
  125.5330  135.9810  169.8140 C   0  0  0  0  0  0  0  0  0  0  0  0
  124.2800  136.5850  170.3740 C   0  0  0  0  0  0  0  0  0  0  0  0
  123.7440  136.3170  171.5170 C   0  0  0  0  0  0  0  0  0  0  0  0
  129.5910  139.8040  171.1490 H   0  0  0  0  0  0  0  0  0  0  0  0
  128.0910  139.9130  169.5280 H   0  0  0  0  0  0  0  0  0  0  0  0
  126.0470  138.6760  170.0790 H   0  0  0  0  0  0  0  0  0  0  0  0
  128.7150  136.2870  168.3530 H   0  0  0  0  0  0  0  0  0  0  0  0
  129.1240  137.1500  169.6290 H   0  0  0  0  0  0  0  0  0  0  0  0
  127.7910  134.6790  169.5970 H   0  0  0  0  0  0  0  0  0  0  0  0
  128.6650  135.3010  170.7880 H   0  0  0  0  0  0  0  0  0  0  0  0
  126.3510  136.1040  167.8910 H   0  0  0  0  0  0  0  0  0  0  0  0
  125.3950  137.3250  168.2140 H   0  0  0  0  0  0  0  0  0  0  0  0
  125.3300  135.0570  169.5350 H   0  0  0  0  0  0  0  0  0  0  0  0
  123.8410  137.2280  169.8310 H   0  0  0  0  0  0  0  0  0  0  0  0
  122.9430  136.7520  171.7780 H   0  0  0  0  0  0  0  0  0  0  0  0
  124.1530  135.6910  172.0990 H   0  0  0  0  0  0  0  0  0  0  0  0
  126.4590  135.3040  171.5630 H   0  0  0  0  0  0  0  0  0  0  0  0
  126.1700  137.5780  171.9970 H   0  0  0  0  0  0  0  0  0  0  0  0
  127.7400  137.3720  171.8940 H   0  0  0  0  0  0  0  0  0  0  0  0
  128.0200  140.0730  173.0130 H   0  0  0  0  0  0  0  0  0  0  0  0
  126.9200  141.6620  174.2940 H   0  0  0  0  0  0  0  0  0  0  0  0
  126.2970  140.8430  168.7160 H   0  0  0  0  0  0  0  0  0  0  0  0
  124.2370  143.9420  171.5650 H   0  0  0  0  0  0  0  0  0  0  0  0
  123.7250  143.9120  169.3380 H   0  0  0  0  0  0  0  0  0  0  0  0
  123.5300  143.2000  166.0610 H   0  0  0  0  0  0  0  0  0  0  0  0
  122.8140  143.1660  167.4740 H   0  0  0  0  0  0  0  0  0  0  0  0
  123.9630  144.2220  167.1900 H   0  0  0  0  0  0  0  0  0  0  0  0
  2  3  1  0  0  0  0
  3  4  1  0  0  0  0
  4  7  2  0  0  0  0
  7  8  1  0  0  0  0
  8  9  2  0  0  0  0
  9 10  1  0  0  0  0
  1 11  1  0  0  0  0
 10 11  2  0  0  0  0
  1 12  2  0  0  0  0
  8 12  1  0  0  0  0
 12 13  1  0  0  0  0
  4 14  1  0  0  0  0
 13 14  2  0  0  0  0
  6 15  1  0  0  0  0
  9 15  1  0  0  0  0
  5 16  1  0  0  0  0
 15 16  1  0  0  0  0
 16 17  1  0  0  0  0
 17 18  1  0  0  0  0
 18 19  1  0  0  0  0
  5 20  1  0  0  0  0
 19 20  1  0  0  0  0
  5 21  1  0  0  0  0
 18 22  1  0  0  0  0
 21 22  1  0  0  0  0
 22 23  1  0  0  0  0
 23 24  2  0  0  0  0
  6 25  1  0  0  0  0
 15 26  1  0  0  0  0
 16 27  1  0  0  0  0
 20 28  1  0  0  0  0
 20 29  1  0  0  0  0
 19 30  1  0  0  0  0
 19 31  1  0  0  0  0
 21 32  1  0  0  0  0
 21 33  1  0  0  0  0
 22 34  1  0  0  0  0
 23 35  1  0  0  0  0
 24 36  1  0  0  0  0
 24 37  1  0  0  0  0
 18 38  1  0  0  0  0
 17 39  1  0  0  0  0
 17 40  1  0  0  0  0
 10 41  1  0  0  0  0
 11 42  1  0  0  0  0
  7 43  1  0  0  0  0
 13 44  1  0  0  0  0
 14 45  1  0  0  0  0
  2 46  1  0  0  0  0
  2 47  1  0  0  0  0
  2 48  1  0  0  0  0
M  END
$$$$
