8W8L
  PyMOL3.1          3D                             0

 60 66  0  0  0  0  0  0  0  0999 V2000
   16.7740   -4.2800   30.1620 C   0  0  0  0  0  0  0  0  0  0  0  0
   16.6150   -4.4110   31.5660 C   0  0  0  0  0  0  0  0  0  0  0  0
   16.2860   -5.3190   29.3470 C   0  0  0  0  0  0  0  0  0  0  0  0
   15.6780   -6.4610   29.8580 C   0  0  0  0  0  0  0  0  0  0  0  0
   15.5510   -6.5560   31.2500 C   0  0  0  0  0  0  0  0  0  0  0  0
   15.9950   -5.5740   32.0800 C   0  0  0  0  0  0  0  0  0  0  0  0
   15.1300   -7.5480   28.9990 C   0  0  0  0  0  0  0  0  0  0  0  0
   15.4750   -7.6750   27.6490 C   0  0  0  0  0  0  0  0  0  0  0  0
   15.0020   -8.7300   26.8860 C   0  0  0  0  0  0  0  0  0  0  0  0
   14.1840   -9.6590   27.4790 C   0  0  0  0  0  0  0  0  0  0  0  0
   13.8140   -9.5700   28.8120 C   0  0  0  0  0  0  0  0  0  0  0  0
   14.2910   -8.5070   29.5610 C   0  0  0  0  0  0  0  0  0  0  0  0
   12.8420  -10.8230   29.6080 S   0  0  0  0  0  0  0  0  0  0  0  0
   11.5630  -11.1240   28.6520 N   0  0  0  0  0  0  0  0  0  0  0  0
   10.4840  -10.3310   28.4260 C   0  0  0  0  0  0  0  0  0  0  0  0
    9.5230  -11.0140   27.4640 C   0  0  0  0  0  0  0  0  0  0  0  0
   10.2640   -9.2080   28.8780 O   0  0  0  0  0  0  0  0  0  0  0  0
   10.0730  -11.0460   26.0360 C   0  0  0  0  0  0  0  0  0  0  0  0
    9.5250   -9.7810   25.4380 C   0  0  0  0  0  0  0  0  0  0  0  0
    8.1150   -9.7610   25.9480 C   0  0  0  0  0  0  0  0  0  0  0  0
    8.2250  -10.2740   27.3510 N   0  3  0  0  0  0  0  0  0  0  0  0
   17.1540   -3.3290   32.3580 C   0  0  0  0  0  0  0  0  0  0  0  0
   17.7600   -2.3130   31.7860 N   0  0  0  0  0  0  0  0  0  0  0  0
   17.8490   -2.3090   30.4510 C   0  0  0  0  0  0  0  0  0  0  0  0
   17.4060   -3.2110   29.5950 N   0  0  0  0  0  0  0  0  0  0  0  0
   17.0050   -3.2820   33.6940 N   0  0  0  0  0  0  0  0  0  0  0  0
   13.6220  -12.0220   29.5980 O   0  0  0  0  0  0  0  0  0  0  0  0
   12.3740  -10.2960   30.8540 O   0  0  0  0  0  0  0  0  0  0  0  0
   13.7970  -10.7330   26.7610 F   0  0  0  0  0  0  0  0  0  0  0  0
   16.3820   -5.1410   28.0170 F   0  0  0  0  0  0  0  0  0  0  0  0
   -2.5700   16.3460   23.8330 C   0  0  0  0  0  0  0  0  0  0  0  0
   -3.1930   16.3730   25.1040 C   0  0  0  0  0  0  0  0  0  0  0  0
   -1.7330   17.4270   23.4900 C   0  0  0  0  0  0  0  0  0  0  0  0
   -1.5090   18.5160   24.3270 C   0  0  0  0  0  0  0  0  0  0  0  0
   -2.1550   18.5090   25.5690 C   0  0  0  0  0  0  0  0  0  0  0  0
   -2.9610   17.4810   25.9550 C   0  0  0  0  0  0  0  0  0  0  0  0
   -0.5580   19.6210   24.0010 C   0  0  0  0  0  0  0  0  0  0  0  0
   -0.0910   19.8440   22.7000 C   0  0  0  0  0  0  0  0  0  0  0  0
    0.7370   20.9170   22.4090 C   0  0  0  0  0  0  0  0  0  0  0  0
    1.1070   21.7650   23.4250 C   0  0  0  0  0  0  0  0  0  0  0  0
    0.6620   21.5890   24.7250 C   0  0  0  0  0  0  0  0  0  0  0  0
   -0.1590   20.5060   25.0030 C   0  0  0  0  0  0  0  0  0  0  0  0
    0.9440   22.8080   25.9790 S   0  0  0  0  0  0  0  0  0  0  0  0
    2.5190   23.1780   25.9600 N   0  0  0  0  0  0  0  0  0  0  0  0
    3.4830   22.4180   26.4990 C   0  0  0  0  0  0  0  0  0  0  0  0
    4.8570   23.0470   26.3500 C   0  0  0  0  0  0  0  0  0  0  0  0
    3.3310   21.3100   27.0050 O   0  0  0  0  0  0  0  0  0  0  0  0
    5.3040   23.0930   24.8890 C   0  0  0  0  0  0  0  0  0  0  0  0
    6.1700   21.8560   24.7370 C   0  0  0  0  0  0  0  0  0  0  0  0
    6.8890   21.7870   26.0330 C   0  0  0  0  0  0  0  0  0  0  0  0
    5.8640   22.1880   27.0390 N   0  3  0  0  0  0  0  0  0  0  0  0
   -4.0690   15.2590   25.3930 C   0  0  0  0  0  0  0  0  0  0  0  0
   -4.2560   14.3010   24.5060 N   0  0  0  0  0  0  0  0  0  0  0  0
   -3.6120   14.3970   23.3400 C   0  0  0  0  0  0  0  0  0  0  0  0
   -2.7850   15.3410   22.9340 N   0  0  0  0  0  0  0  0  0  0  0  0
   -4.7190   15.1600   26.5620 N   0  0  0  0  0  0  0  0  0  0  0  0
    0.2740   24.0120   25.5930 O   0  0  0  0  0  0  0  0  0  0  0  0
    0.6920   22.2230   27.2600 O   0  0  0  0  0  0  0  0  0  0  0  0
    2.0190   22.7370   23.1660 F   0  0  0  0  0  0  0  0  0  0  0  0
   -1.0870   17.3330   22.3170 F   0  0  0  0  0  0  0  0  0  0  0  0
  1  2  2  0  0  0  0
  1  3  1  0  0  0  0
  3  4  2  0  0  0  0
  4  5  1  0  0  0  0
  2  6  1  0  0  0  0
  5  6  2  0  0  0  0
  4  7  1  0  0  0  0
  7  8  1  0  0  0  0
  8  9  2  0  0  0  0
  9 10  1  0  0  0  0
 10 11  2  0  0  0  0
  7 12  2  0  0  0  0
 11 12  1  0  0  0  0
 11 13  1  0  0  0  0
 13 14  1  0  0  0  0
 14 15  1  0  0  0  0
 15 16  1  0  0  0  0
 15 17  2  0  0  0  0
 16 18  1  0  0  0  0
 18 19  1  0  0  0  0
 19 20  1  0  0  0  0
 16 21  1  0  0  0  0
 20 21  1  0  0  0  0
  2 22  1  0  0  0  0
 22 23  2  0  0  0  0
 23 24  1  0  0  0  0
  1 25  1  0  0  0  0
 24 25  2  0  0  0  0
 22 26  1  0  0  0  0
 13 27  2  0  0  0  0
 13 28  2  0  0  0  0
 10 29  1  0  0  0  0
  3 30  1  0  0  0  0
 31 32  2  0  0  0  0
 31 33  1  0  0  0  0
 33 34  2  0  0  0  0
 34 35  1  0  0  0  0
 32 36  1  0  0  0  0
 35 36  2  0  0  0  0
 34 37  1  0  0  0  0
 37 38  1  0  0  0  0
 38 39  2  0  0  0  0
 39 40  1  0  0  0  0
 40 41  2  0  0  0  0
 37 42  2  0  0  0  0
 41 42  1  0  0  0  0
 41 43  1  0  0  0  0
 43 44  1  0  0  0  0
 44 45  1  0  0  0  0
 45 46  1  0  0  0  0
 45 47  2  0  0  0  0
 46 48  1  0  0  0  0
 48 49  1  0  0  0  0
 49 50  1  0  0  0  0
 46 51  1  0  0  0  0
 50 51  1  0  0  0  0
 32 52  1  0  0  0  0
 52 53  2  0  0  0  0
 53 54  1  0  0  0  0
 31 55  1  0  0  0  0
 54 55  2  0  0  0  0
 52 56  1  0  0  0  0
 43 57  2  0  0  0  0
 43 58  2  0  0  0  0
 40 59  1  0  0  0  0
 33 60  1  0  0  0  0
M  END
$$$$
