8HFI
  PyMOL3.1          3D                             0

 20 22  0  0  0  0  0  0  0  0999 V2000
   98.4470  100.6630  100.5250 C   0  0  0  0  0  0  0  0  0  0  0  0
  100.2060  100.6890  102.2170 N   0  0  0  0  0  0  0  0  0  0  0  0
   98.0190  101.0090   99.2680 C   0  0  0  0  0  0  0  0  0  0  0  0
   98.5990  104.4980  102.3950 N   0  0  0  0  0  0  0  0  0  0  0  0
   98.8640  101.6560   98.4010 C   0  0  0  0  0  0  0  0  0  0  0  0
  100.1510  101.9470   98.7820 C   0  0  0  0  0  0  0  0  0  0  0  0
  101.9960  101.8840  100.5770 C   0  0  0  0  0  0  0  0  0  0  0  0
  102.7910  100.5660  100.7480 C   0  0  0  0  0  0  0  0  0  0  0  0
  102.9930   98.3480  101.8060 C   0  0  0  0  0  0  0  0  0  0  0  0
  102.5930   97.3040  102.6080 C   0  0  0  0  0  0  0  0  0  0  0  0
  101.4060   97.3730  103.2850 C   0  0  0  0  0  0  0  0  0  0  0  0
  100.6050   98.4820  103.1520 C   0  0  0  0  0  0  0  0  0  0  0  0
  101.0010   99.5310  102.3300 C   0  0  0  0  0  0  0  0  0  0  0  0
  102.2240   99.4950  101.6500 C   0  0  0  0  0  0  0  0  0  0  0  0
  100.6120  101.6280  100.0510 C   0  0  0  0  0  0  0  0  0  0  0  0
   99.7520  100.9440  100.9020 C   0  0  0  0  0  0  0  0  0  0  0  0
   99.1340  100.8060  103.2040 C   0  0  0  0  0  0  0  0  0  0  0  0
   98.4200  102.1460  103.1150 C   0  0  0  0  0  0  0  0  0  0  0  0
   99.3340  103.3350  102.8930 C   0  0  0  0  0  0  0  0  0  0  0  0
   98.4750  104.5520  100.9390 C   0  0  0  0  0  0  0  0  0  0  0  0
  1  3  2  0  0  0  0
  3  5  1  0  0  0  0
  5  6  2  0  0  0  0
  7  8  1  0  0  0  0
  9 10  2  0  0  0  0
 10 11  1  0  0  0  0
 11 12  2  0  0  0  0
  2 13  1  0  0  0  0
 12 13  1  0  0  0  0
  8 14  1  0  0  0  0
  9 14  1  0  0  0  0
 13 14  2  0  0  0  0
  6 15  1  0  0  0  0
  7 15  1  0  0  0  0
  1 16  1  0  0  0  0
  2 16  1  0  0  0  0
 15 16  2  0  0  0  0
  2 17  1  0  0  0  0
 17 18  1  0  0  0  0
  4 19  1  0  0  0  0
 18 19  1  0  0  0  0
  4 20  1  0  0  0  0
M  END
$$$$
