7VNR
  PyMOL3.1          3D                             0

168176  0  0  0  0  0  0  0  0999 V2000
  121.5750  123.6400  136.8200 O   0  0  0  0  0  0  0  0  0  0  0  0
  120.2240  123.1260  138.5670 N   0  0  0  0  0  0  0  0  0  0  0  0
  118.4460  124.1550  136.7740 C   0  0  0  0  0  0  0  0  0  0  0  0
  118.8020  125.1910  135.0690 C   0  0  0  0  0  0  0  0  0  0  0  0
  118.5220  123.9950  135.4820 C   0  0  0  0  0  0  0  0  0  0  0  0
  119.6250  124.8940  137.1590 C   0  0  0  0  0  0  0  0  0  0  0  0
  119.9760  125.7290  135.9090 C   0  0  0  0  0  0  0  0  0  0  0  0
  117.2210  125.0890  136.9110 C   0  0  0  0  0  0  0  0  0  0  0  0
  117.6050  125.9240  135.5240 C   0  0  0  0  0  0  0  0  0  0  0  0
  120.6020  123.8670  137.4320 C   0  0  0  0  0  0  0  0  0  0  0  0
  121.0050  122.0670  139.0120 C   0  0  0  0  0  0  0  0  0  0  0  0
  122.2020  122.3040  139.5310 C   0  0  0  0  0  0  0  0  0  0  0  0
  120.4790  120.8560  138.9050 C   0  0  0  0  0  0  0  0  0  0  0  0
  122.9290  121.2500  139.9600 C   0  0  0  0  0  0  0  0  0  0  0  0
  121.1840  119.7850  139.3250 C   0  0  0  0  0  0  0  0  0  0  0  0
  122.4140  120.0240  139.8490 C   0  0  0  0  0  0  0  0  0  0  0  0
  122.6840  123.7180  139.6000 C   0  0  0  0  0  0  0  0  0  0  0  0
  119.1280  120.7890  138.2900 C   0  0  0  0  0  0  0  0  0  0  0  0
  123.2420  118.9030  140.3370 C   0  0  0  0  0  0  0  0  0  0  0  0
  119.3910  123.3600  139.0350 H   0  0  0  0  0  0  0  0  0  0  0  0
  118.3200  123.2340  137.2870 H   0  0  0  0  0  0  0  0  0  0  0  0
  118.9570  125.2540  134.0210 H   0  0  0  0  0  0  0  0  0  0  0  0
  117.5520  123.7370  135.1100 H   0  0  0  0  0  0  0  0  0  0  0  0
  119.2870  123.2850  135.2320 H   0  0  0  0  0  0  0  0  0  0  0  0
  119.4440  125.4840  138.0310 H   0  0  0  0  0  0  0  0  0  0  0  0
  120.9270  125.4530  135.5040 H   0  0  0  0  0  0  0  0  0  0  0  0
  119.8450  126.7710  136.1090 H   0  0  0  0  0  0  0  0  0  0  0  0
  116.3160  124.5170  136.7980 H   0  0  0  0  0  0  0  0  0  0  0  0
  117.2880  125.6770  137.8110 H   0  0  0  0  0  0  0  0  0  0  0  0
  117.8690  126.9390  135.7360 H   0  0  0  0  0  0  0  0  0  0  0  0
  116.8420  125.8030  134.7880 H   0  0  0  0  0  0  0  0  0  0  0  0
  123.8930  121.3770  140.3790 H   0  0  0  0  0  0  0  0  0  0  0  0
  120.7910  118.7990  139.2510 H   0  0  0  0  0  0  0  0  0  0  0  0
  123.2150  123.9300  138.6850 H   0  0  0  0  0  0  0  0  0  0  0  0
  123.3170  123.8410  140.4600 H   0  0  0  0  0  0  0  0  0  0  0  0
  121.8270  124.3700  139.6810 H   0  0  0  0  0  0  0  0  0  0  0  0
  118.8950  119.7780  138.0170 H   0  0  0  0  0  0  0  0  0  0  0  0
  119.1780  121.4020  137.4100 H   0  0  0  0  0  0  0  0  0  0  0  0
  118.3910  121.1890  138.9650 H   0  0  0  0  0  0  0  0  0  0  0  0
  123.9250  119.3070  141.0650 H   0  0  0  0  0  0  0  0  0  0  0  0
  123.7850  118.4990  139.4940 H   0  0  0  0  0  0  0  0  0  0  0  0
  122.5850  118.1710  140.7760 H   0  0  0  0  0  0  0  0  0  0  0  0
  123.6180  140.8260  136.8210 O   0  0  0  0  0  0  0  0  0  0  0  0
  123.0990  142.1760  138.5680 N   0  0  0  0  0  0  0  0  0  0  0  0
  124.1280  143.9550  136.7760 C   0  0  0  0  0  0  0  0  0  0  0  0
  125.1660  143.6000  135.0720 C   0  0  0  0  0  0  0  0  0  0  0  0
  123.9690  143.8790  135.4840 C   0  0  0  0  0  0  0  0  0  0  0  0
  124.8680  142.7770  137.1610 C   0  0  0  0  0  0  0  0  0  0  0  0
  125.7050  142.4280  135.9130 C   0  0  0  0  0  0  0  0  0  0  0  0
  125.0600  145.1810  136.9140 C   0  0  0  0  0  0  0  0  0  0  0  0
  125.8960  144.7990  135.5280 C   0  0  0  0  0  0  0  0  0  0  0  0
  123.8420  141.7980  137.4340 C   0  0  0  0  0  0  0  0  0  0  0  0
  122.0410  141.3920  139.0120 C   0  0  0  0  0  0  0  0  0  0  0  0
  122.2790  140.1960  139.5310 C   0  0  0  0  0  0  0  0  0  0  0  0
  120.8300  141.9170  138.9040 C   0  0  0  0  0  0  0  0  0  0  0  0
  121.2270  139.4680  139.9590 C   0  0  0  0  0  0  0  0  0  0  0  0
  119.7590  141.2100  139.3220 C   0  0  0  0  0  0  0  0  0  0  0  0
  119.9990  139.9810  139.8470 C   0  0  0  0  0  0  0  0  0  0  0  0
  123.6940  139.7160  139.6020 C   0  0  0  0  0  0  0  0  0  0  0  0
  120.7610  143.2680  138.2890 C   0  0  0  0  0  0  0  0  0  0  0  0
  118.8790  139.1510  140.3340 C   0  0  0  0  0  0  0  0  0  0  0  0
  123.3320  143.0080  139.0360 H   0  0  0  0  0  0  0  0  0  0  0  0
  123.2060  144.0790  137.2880 H   0  0  0  0  0  0  0  0  0  0  0  0
  125.2310  143.4460  134.0240 H   0  0  0  0  0  0  0  0  0  0  0  0
  123.7100  144.8480  135.1110 H   0  0  0  0  0  0  0  0  0  0  0  0
  123.2600  143.1130  135.2330 H   0  0  0  0  0  0  0  0  0  0  0  0
  125.4570  142.9590  138.0350 H   0  0  0  0  0  0  0  0  0  0  0  0
  125.4310  141.4760  135.5070 H   0  0  0  0  0  0  0  0  0  0  0  0
  126.7470  142.5600  136.1130 H   0  0  0  0  0  0  0  0  0  0  0  0
  124.4860  146.0850  136.8000 H   0  0  0  0  0  0  0  0  0  0  0  0
  125.6470  145.1160  137.8140 H   0  0  0  0  0  0  0  0  0  0  0  0
  126.9120  144.5360  135.7410 H   0  0  0  0  0  0  0  0  0  0  0  0
  125.7750  145.5620  134.7910 H   0  0  0  0  0  0  0  0  0  0  0  0
  121.3550  138.5040  140.3780 H   0  0  0  0  0  0  0  0  0  0  0  0
  118.7720  141.6020  139.2480 H   0  0  0  0  0  0  0  0  0  0  0  0
  123.9080  139.1860  138.6870 H   0  0  0  0  0  0  0  0  0  0  0  0
  123.8180  139.0830  140.4620 H   0  0  0  0  0  0  0  0  0  0  0  0
  124.3450  140.5740  139.6840 H   0  0  0  0  0  0  0  0  0  0  0  0
  119.7500  143.5000  138.0140 H   0  0  0  0  0  0  0  0  0  0  0  0
  121.3750  143.2190  137.4090 H   0  0  0  0  0  0  0  0  0  0  0  0
  121.1590  144.0050  138.9640 H   0  0  0  0  0  0  0  0  0  0  0  0
  119.2840  138.4680  141.0620 H   0  0  0  0  0  0  0  0  0  0  0  0
  118.4780  138.6070  139.4900 H   0  0  0  0  0  0  0  0  0  0  0  0
  118.1460  139.8070  140.7720 H   0  0  0  0  0  0  0  0  0  0  0  0
  140.8500  138.7720  136.8300 O   0  0  0  0  0  0  0  0  0  0  0  0
  142.1990  139.2900  138.5780 N   0  0  0  0  0  0  0  0  0  0  0  0
  143.9800  138.2620  136.7870 C   0  0  0  0  0  0  0  0  0  0  0  0
  143.6260  137.2240  135.0830 C   0  0  0  0  0  0  0  0  0  0  0  0
  143.9050  138.4210  135.4950 C   0  0  0  0  0  0  0  0  0  0  0  0
  142.8020  137.5210  137.1710 C   0  0  0  0  0  0  0  0  0  0  0  0
  142.4530  136.6850  135.9220 C   0  0  0  0  0  0  0  0  0  0  0  0
  145.2060  137.3290  136.9260 C   0  0  0  0  0  0  0  0  0  0  0  0
  144.8240  136.4940  135.5400 C   0  0  0  0  0  0  0  0  0  0  0  0
  141.8220  138.5470  137.4440 C   0  0  0  0  0  0  0  0  0  0  0  0
  141.4150  140.3480  139.0220 C   0  0  0  0  0  0  0  0  0  0  0  0
  140.2180  140.1090  139.5400 C   0  0  0  0  0  0  0  0  0  0  0  0
  141.9390  141.5590  138.9150 C   0  0  0  0  0  0  0  0  0  0  0  0
  139.4890  141.1620  139.9670 C   0  0  0  0  0  0  0  0  0  0  0  0
  141.2330  142.6300  139.3330 C   0  0  0  0  0  0  0  0  0  0  0  0
  140.0030  142.3890  139.8560 C   0  0  0  0  0  0  0  0  0  0  0  0
  139.7380  138.6950  139.6090 C   0  0  0  0  0  0  0  0  0  0  0  0
  143.2920  141.6280  138.3010 C   0  0  0  0  0  0  0  0  0  0  0  0
  139.1720  143.5090  140.3430 C   0  0  0  0  0  0  0  0  0  0  0  0
  143.0310  139.0570  139.0470 H   0  0  0  0  0  0  0  0  0  0  0  0
  144.1040  139.1830  137.3000 H   0  0  0  0  0  0  0  0  0  0  0  0
  143.4730  137.1600  134.0350 H   0  0  0  0  0  0  0  0  0  0  0  0
  144.8740  138.6800  135.1240 H   0  0  0  0  0  0  0  0  0  0  0  0
  143.1390  139.1300  135.2440 H   0  0  0  0  0  0  0  0  0  0  0  0
  142.9820  136.9320  138.0450 H   0  0  0  0  0  0  0  0  0  0  0  0
  141.5020  136.9590  135.5160 H   0  0  0  0  0  0  0  0  0  0  0  0
  142.5850  135.6430  136.1220 H   0  0  0  0  0  0  0  0  0  0  0  0
  146.1100  137.9030  136.8140 H   0  0  0  0  0  0  0  0  0  0  0  0
  145.1390  136.7420  137.8260 H   0  0  0  0  0  0  0  0  0  0  0  0
  144.5620  135.4780  135.7520 H   0  0  0  0  0  0  0  0  0  0  0  0
  145.5880  136.6150  134.8040 H   0  0  0  0  0  0  0  0  0  0  0  0
  138.5250  141.0340  140.3850 H   0  0  0  0  0  0  0  0  0  0  0  0
  141.6240  143.6160  139.2590 H   0  0  0  0  0  0  0  0  0  0  0  0
  139.2090  138.4810  138.6940 H   0  0  0  0  0  0  0  0  0  0  0  0
  139.1040  138.5710  140.4690 H   0  0  0  0  0  0  0  0  0  0  0  0
  140.5960  138.0430  139.6920 H   0  0  0  0  0  0  0  0  0  0  0  0
  143.5230  142.6390  138.0270 H   0  0  0  0  0  0  0  0  0  0  0  0
  143.2430  141.0140  137.4210 H   0  0  0  0  0  0  0  0  0  0  0  0
  144.0280  141.2290  138.9770 H   0  0  0  0  0  0  0  0  0  0  0  0
  138.4890  143.1040  141.0700 H   0  0  0  0  0  0  0  0  0  0  0  0
  138.6290  143.9110  139.4990 H   0  0  0  0  0  0  0  0  0  0  0  0
  139.8280  144.2420  140.7820 H   0  0  0  0  0  0  0  0  0  0  0  0
  138.7950  121.5550  136.8430 O   0  0  0  0  0  0  0  0  0  0  0  0
  139.3110  120.2060  138.5920 N   0  0  0  0  0  0  0  0  0  0  0  0
  138.2860  118.4250  136.8000 C   0  0  0  0  0  0  0  0  0  0  0  0
  137.2500  118.7790  135.0930 C   0  0  0  0  0  0  0  0  0  0  0  0
  138.4470  118.5000  135.5070 C   0  0  0  0  0  0  0  0  0  0  0  0
  137.5450  119.6030  137.1830 C   0  0  0  0  0  0  0  0  0  0  0  0
  136.7100  119.9520  135.9330 C   0  0  0  0  0  0  0  0  0  0  0  0
  137.3540  117.1990  136.9360 C   0  0  0  0  0  0  0  0  0  0  0  0
  136.5200  117.5800  135.5490 C   0  0  0  0  0  0  0  0  0  0  0  0
  138.5700  120.5830  137.4560 C   0  0  0  0  0  0  0  0  0  0  0  0
  140.3690  120.9900  139.0370 C   0  0  0  0  0  0  0  0  0  0  0  0
  140.1290  122.1870  139.5550 C   0  0  0  0  0  0  0  0  0  0  0  0
  141.5800  120.4660  138.9310 C   0  0  0  0  0  0  0  0  0  0  0  0
  141.1810  122.9150  139.9840 C   0  0  0  0  0  0  0  0  0  0  0  0
  142.6500  121.1720  139.3510 C   0  0  0  0  0  0  0  0  0  0  0  0
  142.4090  122.4020  139.8740 C   0  0  0  0  0  0  0  0  0  0  0  0
  138.7150  122.6660  139.6230 C   0  0  0  0  0  0  0  0  0  0  0  0
  141.6500  119.1140  138.3170 C   0  0  0  0  0  0  0  0  0  0  0  0
  143.5280  123.2330  140.3620 C   0  0  0  0  0  0  0  0  0  0  0  0
  139.0780  119.3740  139.0600 H   0  0  0  0  0  0  0  0  0  0  0  0
  139.2070  118.3010  137.3130 H   0  0  0  0  0  0  0  0  0  0  0  0
  137.1870  118.9320  134.0450 H   0  0  0  0  0  0  0  0  0  0  0  0
  138.7060  117.5310  135.1360 H   0  0  0  0  0  0  0  0  0  0  0  0
  139.1560  119.2670  135.2580 H   0  0  0  0  0  0  0  0  0  0  0  0
  136.9550  119.4220  138.0550 H   0  0  0  0  0  0  0  0  0  0  0  0
  136.9840  120.9030  135.5270 H   0  0  0  0  0  0  0  0  0  0  0  0
  135.6680  119.8200  136.1310 H   0  0  0  0  0  0  0  0  0  0  0  0
  137.9280  116.2950  136.8250 H   0  0  0  0  0  0  0  0  0  0  0  0
  136.7650  117.2650  137.8360 H   0  0  0  0  0  0  0  0  0  0  0  0
  135.5040  117.8430  135.7600 H   0  0  0  0  0  0  0  0  0  0  0  0
  136.6420  116.8170  134.8130 H   0  0  0  0  0  0  0  0  0  0  0  0
  141.0520  123.8800  140.4020 H   0  0  0  0  0  0  0  0  0  0  0  0
  143.6370  120.7810  139.2780 H   0  0  0  0  0  0  0  0  0  0  0  0
  138.5020  123.1960  138.7070 H   0  0  0  0  0  0  0  0  0  0  0  0
  138.5900  123.3000  140.4820 H   0  0  0  0  0  0  0  0  0  0  0  0
  138.0630  121.8080  139.7040 H   0  0  0  0  0  0  0  0  0  0  0  0
  142.6620  118.8820  138.0440 H   0  0  0  0  0  0  0  0  0  0  0  0
  141.0370  119.1620  137.4360 H   0  0  0  0  0  0  0  0  0  0  0  0
  141.2510  118.3770  138.9920 H   0  0  0  0  0  0  0  0  0  0  0  0
  143.1220  123.9160  141.0890 H   0  0  0  0  0  0  0  0  0  0  0  0
  143.9310  123.7760  139.5190 H   0  0  0  0  0  0  0  0  0  0  0  0
  144.2610  122.5770  140.8020 H   0  0  0  0  0  0  0  0  0  0  0  0
  3  5  1  0  0  0  0
  4  5  1  0  0  0  0
  3  6  1  0  0  0  0
  4  7  1  0  0  0  0
  6  7  1  0  0  0  0
  3  8  1  0  0  0  0
  4  9  1  0  0  0  0
  8  9  1  0  0  0  0
  1 10  2  0  0  0  0
  2 10  1  0  0  0  0
  6 10  1  0  0  0  0
  2 11  1  0  0  0  0
 11 12  2  0  0  0  0
 11 13  1  0  0  0  0
 12 14  1  0  0  0  0
 13 15  2  0  0  0  0
 14 16  2  0  0  0  0
 15 16  1  0  0  0  0
 12 17  1  0  0  0  0
 13 18  1  0  0  0  0
 16 19  1  0  0  0  0
  2 20  1  0  0  0  0
  3 21  1  0  0  0  0
  4 22  1  0  0  0  0
  5 23  1  0  0  0  0
  5 24  1  0  0  0  0
  6 25  1  0  0  0  0
  7 26  1  0  0  0  0
  7 27  1  0  0  0  0
  8 28  1  0  0  0  0
  8 29  1  0  0  0  0
  9 30  1  0  0  0  0
  9 31  1  0  0  0  0
 14 32  1  0  0  0  0
 15 33  1  0  0  0  0
 17 34  1  0  0  0  0
 17 35  1  0  0  0  0
 17 36  1  0  0  0  0
 18 37  1  0  0  0  0
 18 38  1  0  0  0  0
 18 39  1  0  0  0  0
 19 40  1  0  0  0  0
 19 41  1  0  0  0  0
 19 42  1  0  0  0  0
 45 47  1  0  0  0  0
 46 47  1  0  0  0  0
 45 48  1  0  0  0  0
 46 49  1  0  0  0  0
 48 49  1  0  0  0  0
 45 50  1  0  0  0  0
 46 51  1  0  0  0  0
 50 51  1  0  0  0  0
 43 52  2  0  0  0  0
 44 52  1  0  0  0  0
 48 52  1  0  0  0  0
 44 53  1  0  0  0  0
 53 54  2  0  0  0  0
 53 55  1  0  0  0  0
 54 56  1  0  0  0  0
 55 57  2  0  0  0  0
 56 58  2  0  0  0  0
 57 58  1  0  0  0  0
 54 59  1  0  0  0  0
 55 60  1  0  0  0  0
 58 61  1  0  0  0  0
 44 62  1  0  0  0  0
 45 63  1  0  0  0  0
 46 64  1  0  0  0  0
 47 65  1  0  0  0  0
 47 66  1  0  0  0  0
 48 67  1  0  0  0  0
 49 68  1  0  0  0  0
 49 69  1  0  0  0  0
 50 70  1  0  0  0  0
 50 71  1  0  0  0  0
 51 72  1  0  0  0  0
 51 73  1  0  0  0  0
 56 74  1  0  0  0  0
 57 75  1  0  0  0  0
 59 76  1  0  0  0  0
 59 77  1  0  0  0  0
 59 78  1  0  0  0  0
 60 79  1  0  0  0  0
 60 80  1  0  0  0  0
 60 81  1  0  0  0  0
 61 82  1  0  0  0  0
 61 83  1  0  0  0  0
 61 84  1  0  0  0  0
 87 89  1  0  0  0  0
 88 89  1  0  0  0  0
 87 90  1  0  0  0  0
 88 91  1  0  0  0  0
 90 91  1  0  0  0  0
 87 92  1  0  0  0  0
 88 93  1  0  0  0  0
 92 93  1  0  0  0  0
 85 94  2  0  0  0  0
 86 94  1  0  0  0  0
 90 94  1  0  0  0  0
 86 95  1  0  0  0  0
 95 96  2  0  0  0  0
 95 97  1  0  0  0  0
 96 98  1  0  0  0  0
 97 99  2  0  0  0  0
 98100  2  0  0  0  0
 99100  1  0  0  0  0
 96101  1  0  0  0  0
 97102  1  0  0  0  0
100103  1  0  0  0  0
 86104  1  0  0  0  0
 87105  1  0  0  0  0
 88106  1  0  0  0  0
 89107  1  0  0  0  0
 89108  1  0  0  0  0
 90109  1  0  0  0  0
 91110  1  0  0  0  0
 91111  1  0  0  0  0
 92112  1  0  0  0  0
 92113  1  0  0  0  0
 93114  1  0  0  0  0
 93115  1  0  0  0  0
 98116  1  0  0  0  0
 99117  1  0  0  0  0
101118  1  0  0  0  0
101119  1  0  0  0  0
101120  1  0  0  0  0
102121  1  0  0  0  0
102122  1  0  0  0  0
102123  1  0  0  0  0
103124  1  0  0  0  0
103125  1  0  0  0  0
103126  1  0  0  0  0
129131  1  0  0  0  0
130131  1  0  0  0  0
129132  1  0  0  0  0
130133  1  0  0  0  0
132133  1  0  0  0  0
129134  1  0  0  0  0
130135  1  0  0  0  0
134135  1  0  0  0  0
127136  2  0  0  0  0
128136  1  0  0  0  0
132136  1  0  0  0  0
128137  1  0  0  0  0
137138  2  0  0  0  0
137139  1  0  0  0  0
138140  1  0  0  0  0
139141  2  0  0  0  0
140142  2  0  0  0  0
141142  1  0  0  0  0
138143  1  0  0  0  0
139144  1  0  0  0  0
142145  1  0  0  0  0
128146  1  0  0  0  0
129147  1  0  0  0  0
130148  1  0  0  0  0
131149  1  0  0  0  0
131150  1  0  0  0  0
132151  1  0  0  0  0
133152  1  0  0  0  0
133153  1  0  0  0  0
134154  1  0  0  0  0
134155  1  0  0  0  0
135156  1  0  0  0  0
135157  1  0  0  0  0
140158  1  0  0  0  0
141159  1  0  0  0  0
143160  1  0  0  0  0
143161  1  0  0  0  0
143162  1  0  0  0  0
144163  1  0  0  0  0
144164  1  0  0  0  0
144165  1  0  0  0  0
145166  1  0  0  0  0
145167  1  0  0  0  0
145168  1  0  0  0  0
M  END
$$$$
