9BIU
  PyMOL3.1          3D                             0

 46 49  0  0  0  0  0  0  0  0999 V2000
  163.9770  155.1470  154.3480 Cl  0  0  0  0  0  0  0  0  0  0  0  0
  166.8130  154.9190  158.6540 C   0  0  0  0  0  0  0  0  0  0  0  0
  166.9060  154.1520  159.5940 O   0  0  0  0  0  0  0  0  0  0  0  0
  166.6950  154.7890  157.1260 C   0  0  0  0  0  0  0  0  0  0  0  0
  165.6150  153.9760  156.5870 N   0  0  0  0  0  0  0  0  0  0  0  0
  166.5210  156.3360  157.1450 C   0  0  0  0  0  0  0  0  0  0  0  0
  164.8660  157.0500  156.9800 S   0  0  0  0  0  0  0  0  0  0  0  0
  165.1140  158.0670  158.4990 C   0  0  0  0  0  0  0  0  0  0  0  0
  165.9240  157.1260  159.4460 C   0  0  0  0  0  0  0  0  0  0  0  0
  166.7700  156.2930  158.5960 N   0  0  0  0  0  0  0  0  0  0  0  0
  166.6960  157.8870  160.4970 C   0  0  0  0  0  0  0  0  0  0  0  0
  164.5740  153.5590  157.3240 C   0  0  0  0  0  0  0  0  0  0  0  0
  164.4340  153.8510  158.5110 O   0  0  0  0  0  0  0  0  0  0  0  0
  163.5670  152.7240  156.6350 C   0  0  0  0  0  0  0  0  0  0  0  0
  162.4630  152.2190  157.2600 C   0  0  0  0  0  0  0  0  0  0  0  0
  161.7330  151.5060  156.3790 O   0  0  0  0  0  0  0  0  0  0  0  0
  162.3760  151.5370  155.1160 N   0  0  0  0  0  0  0  0  0  0  0  0
  163.4540  152.2580  155.2800 C   0  0  0  0  0  0  0  0  0  0  0  0
  161.9350  152.2970  158.6440 C   0  0  0  0  0  0  0  0  0  0  0  0
  164.2950  152.4570  154.0810 C   0  0  0  0  0  0  0  0  0  0  0  0
  164.5570  153.7200  153.5520 C   0  0  0  0  0  0  0  0  0  0  0  0
  165.2850  153.8770  152.3850 C   0  0  0  0  0  0  0  0  0  0  0  0
  165.7670  152.7590  151.7280 C   0  0  0  0  0  0  0  0  0  0  0  0
  165.5230  151.5000  152.2320 C   0  0  0  0  0  0  0  0  0  0  0  0
  164.7950  151.3450  153.3990 C   0  0  0  0  0  0  0  0  0  0  0  0
  165.8990  159.3280  158.1420 C   0  0  0  0  0  0  0  0  0  0  0  0
  163.7550  158.4250  159.0960 C   0  0  0  0  0  0  0  0  0  0  0  0
  166.1730  157.9470  161.6300 O   0  0  0  0  0  0  0  0  0  0  0  0
  167.7930  158.3960  160.1640 O   0  0  0  0  0  0  0  0  0  0  0  0
  165.6780  153.7540  155.7390 H   0  0  0  0  0  0  0  0  0  0  0  0
  167.5490  154.5120  156.7390 H   0  0  0  0  0  0  0  0  0  0  0  0
  167.2090  156.8240  156.6490 H   0  0  0  0  0  0  0  0  0  0  0  0
  165.3140  156.5210  159.9170 H   0  0  0  0  0  0  0  0  0  0  0  0
  165.4620  154.7700  152.0240 H   0  0  0  0  0  0  0  0  0  0  0  0
  166.2820  152.8640  150.9010 H   0  0  0  0  0  0  0  0  0  0  0  0
  165.8630  150.7110  151.7620 H   0  0  0  0  0  0  0  0  0  0  0  0
  164.6300  150.4440  153.7440 H   0  0  0  0  0  0  0  0  0  0  0  0
  162.1060  153.1810  159.0270 H   0  0  0  0  0  0  0  0  0  0  0  0
  162.3520  151.6210  159.2160 H   0  0  0  0  0  0  0  0  0  0  0  0
  160.9680  152.1440  158.6580 H   0  0  0  0  0  0  0  0  0  0  0  0
  166.7660  159.1270  157.7340 H   0  0  0  0  0  0  0  0  0  0  0  0
  165.4040  159.8830  157.5060 H   0  0  0  0  0  0  0  0  0  0  0  0
  166.0560  159.8850  158.9310 H   0  0  0  0  0  0  0  0  0  0  0  0
  163.2050  157.6310  159.2500 H   0  0  0  0  0  0  0  0  0  0  0  0
  163.8340  158.9000  159.9490 H   0  0  0  0  0  0  0  0  0  0  0  0
  163.2580  159.0070  158.4860 H   0  0  0  0  0  0  0  0  0  0  0  0
  2  3  2  0  0  0  0
  2  4  1  0  0  0  0
  4  5  1  0  0  0  0
  4  6  1  0  0  0  0
  6  7  1  0  0  0  0
  7  8  1  0  0  0  0
  8  9  1  0  0  0  0
  2 10  1  0  0  0  0
  6 10  1  0  0  0  0
  9 10  1  0  0  0  0
  9 11  1  0  0  0  0
  5 12  1  0  0  0  0
 12 13  2  0  0  0  0
 12 14  1  0  0  0  0
 14 15  2  0  0  0  0
 15 16  1  0  0  0  0
 16 17  1  0  0  0  0
 14 18  1  0  0  0  0
 17 18  2  0  0  0  0
 15 19  1  0  0  0  0
 18 20  1  0  0  0  0
  1 21  1  0  0  0  0
 20 21  2  0  0  0  0
 21 22  1  0  0  0  0
 22 23  2  0  0  0  0
 23 24  1  0  0  0  0
 20 25  1  0  0  0  0
 24 25  2  0  0  0  0
  8 26  1  0  0  0  0
  8 27  1  0  0  0  0
 11 28  1  0  0  0  0
 11 29  2  0  0  0  0
  5 30  1  0  0  0  0
  4 31  1  0  0  0  0
  6 32  1  0  0  0  0
  9 33  1  0  0  0  0
 22 34  1  0  0  0  0
 23 35  1  0  0  0  0
 24 36  1  0  0  0  0
 25 37  1  0  0  0  0
 19 38  1  0  0  0  0
 19 39  1  0  0  0  0
 19 40  1  0  0  0  0
 26 41  1  0  0  0  0
 26 42  1  0  0  0  0
 26 43  1  0  0  0  0
 27 44  1  0  0  0  0
 27 45  1  0  0  0  0
 27 46  1  0  0  0  0
M  END
$$$$
