6ZNV
  PyMOL3.1          3D                             0

 21 23  0  0  0  0  0  0  0  0999 V2000
   18.9343   -3.8129   16.6466 N   0  0  0  0  0  0  0  0  0  0  0  0
   19.0756   -2.7167   15.8917 C   0  0  0  0  0  0  0  0  0  0  0  0
   20.5698    1.8426   15.8870 O   0  0  0  0  0  0  0  0  0  0  0  0
   19.5747   -0.4528   14.4939 C   0  0  0  0  0  0  0  0  0  0  0  0
   19.6930   -1.6852   16.4663 N   0  0  0  0  0  0  0  0  0  0  0  0
   15.9354   -7.0947   12.5082 O   0  0  0  0  0  0  0  0  0  0  0  0
   19.9649    0.8088   13.8164 C   0  0  0  0  0  0  0  0  0  0  0  0
   19.9432   -0.5610   15.7763 N   0  0  0  0  0  0  0  0  0  0  0  0
   19.8638    0.9255   12.4280 C   0  0  0  0  0  0  0  0  0  0  0  0
   17.9409   -3.7506   14.0118 N   0  0  0  0  0  0  0  0  0  0  0  0
   20.2798    2.0766   11.7800 C   0  0  0  0  0  0  0  0  0  0  0  0
   20.8043    3.1259   12.4964 C   0  0  0  0  0  0  0  0  0  0  0  0
   20.9083    3.0427   13.8705 C   0  0  0  0  0  0  0  0  0  0  0  0
   20.4865    1.8973   14.5313 C   0  0  0  0  0  0  0  0  0  0  0  0
   18.8988   -1.4814   13.8343 C   0  0  0  0  0  0  0  0  0  0  0  0
   18.6372   -2.6443   14.5499 C   0  0  0  0  0  0  0  0  0  0  0  0
   17.8432   -3.8488   12.5549 C   0  0  0  0  0  0  0  0  0  0  0  0
   17.4908   -5.2732   12.1443 C   0  0  0  0  0  0  0  0  0  0  0  0
   16.2070   -5.7231   12.8101 C   0  0  0  0  0  0  0  0  0  0  0  0
   16.2925   -5.5353   14.3094 C   0  0  0  0  0  0  0  0  0  0  0  0
   16.6733   -4.1031   14.6544 C   0  0  0  0  0  0  0  0  0  0  0  0
  1  2  1  0  0  0  0
  2  5  1  0  0  0  0
  4  7  1  0  0  0  0
  4  8  1  0  0  0  0
  5  8  2  0  0  0  0
  7  9  1  0  0  0  0
  9 11  2  0  0  0  0
 11 12  1  0  0  0  0
 12 13  2  0  0  0  0
  3 14  1  0  0  0  0
  7 14  2  0  0  0  0
 13 14  1  0  0  0  0
  4 15  2  0  0  0  0
  2 16  2  0  0  0  0
 10 16  1  0  0  0  0
 15 16  1  0  0  0  0
 10 17  1  0  0  0  0
 17 18  1  0  0  0  0
  6 19  1  0  0  0  0
 18 19  1  0  0  0  0
 19 20  1  0  0  0  0
 10 21  1  0  0  0  0
 20 21  1  0  0  0  0
M  END
$$$$
