9BHS
  PyMOL3.1          3D                             0

 35 38  0  0  0  0  0  0  0  0999 V2000
   22.8260   -0.6590   -3.7160 Cl  0  0  0  0  0  0  0  0  0  0  0  0
   25.6190    7.1280    4.5720 Cl  0  0  0  0  0  0  0  0  0  0  0  0
   21.9090    4.0680    0.8510 O   0  0  0  0  0  0  0  0  0  0  0  0
   21.5780    4.1830   -0.3290 C   0  0  0  0  0  0  0  0  0  0  0  0
   20.7600    3.3310   -0.9080 N   0  0  0  0  0  0  0  0  0  0  0  0
   20.2280    2.1710   -0.1950 C   0  0  0  0  0  0  0  0  0  0  0  0
   20.9480    0.8890   -0.5560 C   0  0  0  0  0  0  0  0  0  0  0  0
   20.9100   -0.2020    0.3140 C   0  0  0  0  0  0  0  0  0  0  0  0
   21.4560   -1.4240   -0.0450 C   0  0  0  0  0  0  0  0  0  0  0  0
   22.0430   -1.5480   -1.2790 C   0  0  0  0  0  0  0  0  0  0  0  0
   22.1050   -0.4780   -2.1570 C   0  0  0  0  0  0  0  0  0  0  0  0
   21.5560    0.7380   -1.7950 C   0  0  0  0  0  0  0  0  0  0  0  0
   18.7460    2.0080   -0.4970 C   0  0  0  0  0  0  0  0  0  0  0  0
   17.9610    3.2430   -0.1580 C   0  0  0  0  0  0  0  0  0  0  0  0
   17.4570    3.9160   -1.1840 N   0  0  0  0  0  0  0  0  0  0  0  0
   17.8520    3.6050    1.0120 O   0  0  0  0  0  0  0  0  0  0  0  0
   22.1320    5.2770   -1.1900 C   0  0  0  0  0  0  0  0  0  0  0  0
   21.9680    5.4450   -2.5480 C   0  0  0  0  0  0  0  0  0  0  0  0
   22.7010    6.5040   -2.9480 N   0  0  0  0  0  0  0  0  0  0  0  0
   23.3520    7.0590   -1.8660 C   0  0  0  0  0  0  0  0  0  0  0  0
   24.2830    8.1930   -1.9590 C   0  0  0  0  0  0  0  0  0  0  0  0
   24.8660    8.7150   -3.0940 C   0  0  0  0  0  0  0  0  0  0  0  0
   25.5070    9.8350   -2.7270 N   0  0  0  0  0  0  0  0  0  0  0  0
   26.2940   10.7250   -3.5680 C   0  0  0  0  0  0  0  0  0  0  0  0
   25.3790   10.0900   -1.4010 N   0  0  0  0  0  0  0  0  0  0  0  0
   24.6410    9.0960   -0.9440 C   0  0  0  0  0  0  0  0  0  0  0  0
   23.0300    6.3220   -0.7540 C   0  0  0  0  0  0  0  0  0  0  0  0
   23.6660    6.4690    0.5660 C   0  0  0  0  0  0  0  0  0  0  0  0
   24.9980    6.1160    0.7710 C   0  0  0  0  0  0  0  0  0  0  0  0
   25.6070    6.3230    2.0040 C   0  0  0  0  0  0  0  0  0  0  0  0
   24.8740    6.8820    3.0230 C   0  0  0  0  0  0  0  0  0  0  0  0
   23.5510    7.2430    2.8520 C   0  0  0  0  0  0  0  0  0  0  0  0
   22.9870    7.0190    1.6250 C   0  0  0  0  0  0  0  0  0  0  0  0
   21.6960    7.3410    1.4560 F   0  0  0  0  0  0  0  0  0  0  0  0
   22.4520   -2.7720   -1.6910 F   0  0  0  0  0  0  0  0  0  0  0  0
  3  4  2  0  0  0  0
  4  5  1  0  0  0  0
  5  6  1  0  0  0  0
  6  7  1  0  0  0  0
  7  8  2  0  0  0  0
  8  9  1  0  0  0  0
  9 10  2  0  0  0  0
  1 11  1  0  0  0  0
 10 11  1  0  0  0  0
  7 12  1  0  0  0  0
 11 12  2  0  0  0  0
  6 13  1  0  0  0  0
 13 14  1  0  0  0  0
 14 15  1  0  0  0  0
 14 16  2  0  0  0  0
  4 17  1  0  0  0  0
 17 18  2  0  0  0  0
 18 19  1  0  0  0  0
 19 20  1  0  0  0  0
 20 21  1  0  0  0  0
 21 22  2  0  0  0  0
 22 23  1  0  0  0  0
 23 24  1  0  0  0  0
 23 25  1  0  0  0  0
 21 26  1  0  0  0  0
 25 26  2  0  0  0  0
 17 27  1  0  0  0  0
 20 27  2  0  0  0  0
 27 28  1  0  0  0  0
 28 29  1  0  0  0  0
 29 30  2  0  0  0  0
  2 31  1  0  0  0  0
 30 31  1  0  0  0  0
 31 32  2  0  0  0  0
 28 33  2  0  0  0  0
 32 33  1  0  0  0  0
 33 34  1  0  0  0  0
 10 35  1  0  0  0  0
M  END
$$$$
