9BHS
  PyMOL3.1          3D                             0

 41 45  0  0  0  0  0  0  0  0999 V2000
   -2.6960   -6.7170   31.7660 Cl  0  0  0  0  0  0  0  0  0  0  0  0
    1.7360  -13.8700   39.7720 Cl  0  0  0  0  0  0  0  0  0  0  0  0
    0.7670  -11.7650   34.0940 O   0  0  0  0  0  0  0  0  0  0  0  0
   -0.0980  -11.9290   33.2470 C   0  0  0  0  0  0  0  0  0  0  0  0
   -0.0510  -11.3220   32.0650 N   0  0  0  0  0  0  0  0  0  0  0  0
    1.0280  -10.3770   31.7490 C   0  0  0  0  0  0  0  0  0  0  0  0
    0.6210   -8.9350   31.9760 C   0  0  0  0  0  0  0  0  0  0  0  0
    1.5960   -7.9670   32.2090 C   0  0  0  0  0  0  0  0  0  0  0  0
    1.2700   -6.6240   32.2830 C   0  0  0  0  0  0  0  0  0  0  0  0
   -0.0390   -6.2520   32.1310 C   0  0  0  0  0  0  0  0  0  0  0  0
   -1.0320   -7.1950   31.9130 C   0  0  0  0  0  0  0  0  0  0  0  0
   -0.6990   -8.5330   31.8350 C   0  0  0  0  0  0  0  0  0  0  0  0
    1.4660  -10.5590   30.2980 C   0  0  0  0  0  0  0  0  0  0  0  0
    1.8420  -11.9910   30.0110 C   0  0  0  0  0  0  0  0  0  0  0  0
    1.0030  -12.6830   29.2580 N   0  0  0  0  0  0  0  0  0  0  0  0
    2.8630  -12.4720   30.4900 O   0  0  0  0  0  0  0  0  0  0  0  0
   -1.2810  -12.7950   33.5170 C   0  0  0  0  0  0  0  0  0  0  0  0
   -2.4020  -12.9690   32.7320 C   0  0  0  0  0  0  0  0  0  0  0  0
   -3.2480  -13.7920   33.3650 N   0  0  0  0  0  0  0  0  0  0  0  0
   -2.7180  -14.1840   34.5640 C   0  0  0  0  0  0  0  0  0  0  0  0
   -3.4500  -15.0180   35.5330 C   0  0  0  0  0  0  0  0  0  0  0  0
   -3.4650  -15.0700   35.4640 C   0  0  0  0  0  0  0  0  0  0  0  0
   -4.7950  -15.3430   35.5270 C   0  0  0  0  0  0  0  0  0  0  0  0
   -3.0430  -15.6160   36.6560 C   0  0  0  0  0  0  0  0  0  0  0  0
   -5.0050  -16.1720   36.5650 N   0  0  0  0  0  0  0  0  0  0  0  0
   -4.0900  -16.2700   37.1810 N   0  0  0  0  0  0  0  0  0  0  0  0
   -6.2690  -16.7590   36.9990 C   0  0  0  0  0  0  0  0  0  0  0  0
   -4.1260  -17.0440   38.4140 C   0  0  0  0  0  0  0  0  0  0  0  0
   -3.8700  -16.4190   37.2590 N   0  0  0  0  0  0  0  0  0  0  0  0
   -5.1890  -16.1860   36.4020 N   0  0  0  0  0  0  0  0  0  0  0  0
   -2.9380  -15.7210   36.6310 C   0  0  0  0  0  0  0  0  0  0  0  0
   -4.8060  -15.4610   35.3670 C   0  0  0  0  0  0  0  0  0  0  0  0
   -1.4830  -13.5820   34.7020 C   0  0  0  0  0  0  0  0  0  0  0  0
   -0.6950  -13.6160   35.9540 C   0  0  0  0  0  0  0  0  0  0  0  0
   -1.1060  -12.9410   37.1160 C   0  0  0  0  0  0  0  0  0  0  0  0
   -0.3670  -13.0200   38.2850 C   0  0  0  0  0  0  0  0  0  0  0  0
    0.7940  -13.7820   38.3020 C   0  0  0  0  0  0  0  0  0  0  0  0
    1.2320  -14.4640   37.1770 C   0  0  0  0  0  0  0  0  0  0  0  0
    0.4730  -14.3610   36.0330 C   0  0  0  0  0  0  0  0  0  0  0  0
    0.8630  -15.0490   34.9450 F   0  0  0  0  0  0  0  0  0  0  0  0
   -0.3490   -4.9130   32.0750 F   0  0  0  0  0  0  0  0  0  0  0  0
  3  4  2  0  0  0  0
  4  5  1  0  0  0  0
  5  6  1  0  0  0  0
  6  7  1  0  0  0  0
  7  8  2  0  0  0  0
  8  9  1  0  0  0  0
  9 10  2  0  0  0  0
  1 11  1  0  0  0  0
 10 11  1  0  0  0  0
  7 12  1  0  0  0  0
 11 12  2  0  0  0  0
  6 13  1  0  0  0  0
 13 14  1  0  0  0  0
 14 15  1  0  0  0  0
 14 16  2  0  0  0  0
  4 17  1  0  0  0  0
 17 18  2  0  0  0  0
 18 19  1  0  0  0  0
 19 20  1  0  0  0  0
 20 21  1  0  0  0  0
 20 22  1  0  0  0  0
 21 23  2  0  0  0  0
 22 24  2  0  0  0  0
 23 25  1  0  0  0  0
 24 26  1  0  0  0  0
 25 27  1  0  0  0  0
 26 28  1  0  0  0  0
 25 29  1  0  0  0  0
 26 30  1  0  0  0  0
 21 31  1  0  0  0  0
 29 31  2  0  0  0  0
 22 32  1  0  0  0  0
 30 32  2  0  0  0  0
 17 33  1  0  0  0  0
 20 33  2  0  0  0  0
 33 34  1  0  0  0  0
 34 35  1  0  0  0  0
 35 36  2  0  0  0  0
  2 37  1  0  0  0  0
 36 37  1  0  0  0  0
 37 38  2  0  0  0  0
 34 39  2  0  0  0  0
 38 39  1  0  0  0  0
 39 40  1  0  0  0  0
 10 41  1  0  0  0  0
M  END
$$$$
