7VNR
  PyMOL3.1          3D                             0

 42 44  0  0  0  0  0  0  0  0999 V2000
  140.8500  138.7720  136.8300 O   0  0  0  0  0  0  0  0  0  0  0  0
  142.1990  139.2900  138.5780 N   0  0  0  0  0  0  0  0  0  0  0  0
  143.9800  138.2620  136.7870 C   0  0  0  0  0  0  0  0  0  0  0  0
  143.6260  137.2240  135.0830 C   0  0  0  0  0  0  0  0  0  0  0  0
  143.9050  138.4210  135.4950 C   0  0  0  0  0  0  0  0  0  0  0  0
  142.8020  137.5210  137.1710 C   0  0  0  0  0  0  0  0  0  0  0  0
  142.4530  136.6850  135.9220 C   0  0  0  0  0  0  0  0  0  0  0  0
  145.2060  137.3290  136.9260 C   0  0  0  0  0  0  0  0  0  0  0  0
  144.8240  136.4940  135.5400 C   0  0  0  0  0  0  0  0  0  0  0  0
  141.8220  138.5470  137.4440 C   0  0  0  0  0  0  0  0  0  0  0  0
  141.4150  140.3480  139.0220 C   0  0  0  0  0  0  0  0  0  0  0  0
  140.2180  140.1090  139.5400 C   0  0  0  0  0  0  0  0  0  0  0  0
  141.9390  141.5590  138.9150 C   0  0  0  0  0  0  0  0  0  0  0  0
  139.4890  141.1620  139.9670 C   0  0  0  0  0  0  0  0  0  0  0  0
  141.2330  142.6300  139.3330 C   0  0  0  0  0  0  0  0  0  0  0  0
  140.0030  142.3890  139.8560 C   0  0  0  0  0  0  0  0  0  0  0  0
  139.7380  138.6950  139.6090 C   0  0  0  0  0  0  0  0  0  0  0  0
  143.2920  141.6280  138.3010 C   0  0  0  0  0  0  0  0  0  0  0  0
  139.1720  143.5090  140.3430 C   0  0  0  0  0  0  0  0  0  0  0  0
  143.0310  139.0570  139.0470 H   0  0  0  0  0  0  0  0  0  0  0  0
  144.1040  139.1830  137.3000 H   0  0  0  0  0  0  0  0  0  0  0  0
  143.4730  137.1600  134.0350 H   0  0  0  0  0  0  0  0  0  0  0  0
  144.8740  138.6800  135.1240 H   0  0  0  0  0  0  0  0  0  0  0  0
  143.1390  139.1300  135.2440 H   0  0  0  0  0  0  0  0  0  0  0  0
  142.9820  136.9320  138.0450 H   0  0  0  0  0  0  0  0  0  0  0  0
  141.5020  136.9590  135.5160 H   0  0  0  0  0  0  0  0  0  0  0  0
  142.5850  135.6430  136.1220 H   0  0  0  0  0  0  0  0  0  0  0  0
  146.1100  137.9030  136.8140 H   0  0  0  0  0  0  0  0  0  0  0  0
  145.1390  136.7420  137.8260 H   0  0  0  0  0  0  0  0  0  0  0  0
  144.5620  135.4780  135.7520 H   0  0  0  0  0  0  0  0  0  0  0  0
  145.5880  136.6150  134.8040 H   0  0  0  0  0  0  0  0  0  0  0  0
  138.5250  141.0340  140.3850 H   0  0  0  0  0  0  0  0  0  0  0  0
  141.6240  143.6160  139.2590 H   0  0  0  0  0  0  0  0  0  0  0  0
  139.2090  138.4810  138.6940 H   0  0  0  0  0  0  0  0  0  0  0  0
  139.1040  138.5710  140.4690 H   0  0  0  0  0  0  0  0  0  0  0  0
  140.5960  138.0430  139.6920 H   0  0  0  0  0  0  0  0  0  0  0  0
  143.5230  142.6390  138.0270 H   0  0  0  0  0  0  0  0  0  0  0  0
  143.2430  141.0140  137.4210 H   0  0  0  0  0  0  0  0  0  0  0  0
  144.0280  141.2290  138.9770 H   0  0  0  0  0  0  0  0  0  0  0  0
  138.4890  143.1040  141.0700 H   0  0  0  0  0  0  0  0  0  0  0  0
  138.6290  143.9110  139.4990 H   0  0  0  0  0  0  0  0  0  0  0  0
  139.8280  144.2420  140.7820 H   0  0  0  0  0  0  0  0  0  0  0  0
  3  5  1  0  0  0  0
  4  5  1  0  0  0  0
  3  6  1  0  0  0  0
  4  7  1  0  0  0  0
  6  7  1  0  0  0  0
  3  8  1  0  0  0  0
  4  9  1  0  0  0  0
  8  9  1  0  0  0  0
  1 10  2  0  0  0  0
  2 10  1  0  0  0  0
  6 10  1  0  0  0  0
  2 11  1  0  0  0  0
 11 12  2  0  0  0  0
 11 13  1  0  0  0  0
 12 14  1  0  0  0  0
 13 15  2  0  0  0  0
 14 16  2  0  0  0  0
 15 16  1  0  0  0  0
 12 17  1  0  0  0  0
 13 18  1  0  0  0  0
 16 19  1  0  0  0  0
  2 20  1  0  0  0  0
  3 21  1  0  0  0  0
  4 22  1  0  0  0  0
  5 23  1  0  0  0  0
  5 24  1  0  0  0  0
  6 25  1  0  0  0  0
  7 26  1  0  0  0  0
  7 27  1  0  0  0  0
  8 28  1  0  0  0  0
  8 29  1  0  0  0  0
  9 30  1  0  0  0  0
  9 31  1  0  0  0  0
 14 32  1  0  0  0  0
 15 33  1  0  0  0  0
 17 34  1  0  0  0  0
 17 35  1  0  0  0  0
 17 36  1  0  0  0  0
 18 37  1  0  0  0  0
 18 38  1  0  0  0  0
 18 39  1  0  0  0  0
 19 40  1  0  0  0  0
 19 41  1  0  0  0  0
 19 42  1  0  0  0  0
M  END
$$$$
