7VNR
  PyMOL3.1          3D                             0

 42 44  0  0  0  0  0  0  0  0999 V2000
  138.7950  121.5550  136.8430 O   0  0  0  0  0  0  0  0  0  0  0  0
  139.3110  120.2060  138.5920 N   0  0  0  0  0  0  0  0  0  0  0  0
  138.2860  118.4250  136.8000 C   0  0  0  0  0  0  0  0  0  0  0  0
  137.2500  118.7790  135.0930 C   0  0  0  0  0  0  0  0  0  0  0  0
  138.4470  118.5000  135.5070 C   0  0  0  0  0  0  0  0  0  0  0  0
  137.5450  119.6030  137.1830 C   0  0  0  0  0  0  0  0  0  0  0  0
  136.7100  119.9520  135.9330 C   0  0  0  0  0  0  0  0  0  0  0  0
  137.3540  117.1990  136.9360 C   0  0  0  0  0  0  0  0  0  0  0  0
  136.5200  117.5800  135.5490 C   0  0  0  0  0  0  0  0  0  0  0  0
  138.5700  120.5830  137.4560 C   0  0  0  0  0  0  0  0  0  0  0  0
  140.3690  120.9900  139.0370 C   0  0  0  0  0  0  0  0  0  0  0  0
  140.1290  122.1870  139.5550 C   0  0  0  0  0  0  0  0  0  0  0  0
  141.5800  120.4660  138.9310 C   0  0  0  0  0  0  0  0  0  0  0  0
  141.1810  122.9150  139.9840 C   0  0  0  0  0  0  0  0  0  0  0  0
  142.6500  121.1720  139.3510 C   0  0  0  0  0  0  0  0  0  0  0  0
  142.4090  122.4020  139.8740 C   0  0  0  0  0  0  0  0  0  0  0  0
  138.7150  122.6660  139.6230 C   0  0  0  0  0  0  0  0  0  0  0  0
  141.6500  119.1140  138.3170 C   0  0  0  0  0  0  0  0  0  0  0  0
  143.5280  123.2330  140.3620 C   0  0  0  0  0  0  0  0  0  0  0  0
  139.0780  119.3740  139.0600 H   0  0  0  0  0  0  0  0  0  0  0  0
  139.2070  118.3010  137.3130 H   0  0  0  0  0  0  0  0  0  0  0  0
  137.1870  118.9320  134.0450 H   0  0  0  0  0  0  0  0  0  0  0  0
  138.7060  117.5310  135.1360 H   0  0  0  0  0  0  0  0  0  0  0  0
  139.1560  119.2670  135.2580 H   0  0  0  0  0  0  0  0  0  0  0  0
  136.9550  119.4220  138.0550 H   0  0  0  0  0  0  0  0  0  0  0  0
  136.9840  120.9030  135.5270 H   0  0  0  0  0  0  0  0  0  0  0  0
  135.6680  119.8200  136.1310 H   0  0  0  0  0  0  0  0  0  0  0  0
  137.9280  116.2950  136.8250 H   0  0  0  0  0  0  0  0  0  0  0  0
  136.7650  117.2650  137.8360 H   0  0  0  0  0  0  0  0  0  0  0  0
  135.5040  117.8430  135.7600 H   0  0  0  0  0  0  0  0  0  0  0  0
  136.6420  116.8170  134.8130 H   0  0  0  0  0  0  0  0  0  0  0  0
  141.0520  123.8800  140.4020 H   0  0  0  0  0  0  0  0  0  0  0  0
  143.6370  120.7810  139.2780 H   0  0  0  0  0  0  0  0  0  0  0  0
  138.5020  123.1960  138.7070 H   0  0  0  0  0  0  0  0  0  0  0  0
  138.5900  123.3000  140.4820 H   0  0  0  0  0  0  0  0  0  0  0  0
  138.0630  121.8080  139.7040 H   0  0  0  0  0  0  0  0  0  0  0  0
  142.6620  118.8820  138.0440 H   0  0  0  0  0  0  0  0  0  0  0  0
  141.0370  119.1620  137.4360 H   0  0  0  0  0  0  0  0  0  0  0  0
  141.2510  118.3770  138.9920 H   0  0  0  0  0  0  0  0  0  0  0  0
  143.1220  123.9160  141.0890 H   0  0  0  0  0  0  0  0  0  0  0  0
  143.9310  123.7760  139.5190 H   0  0  0  0  0  0  0  0  0  0  0  0
  144.2610  122.5770  140.8020 H   0  0  0  0  0  0  0  0  0  0  0  0
  3  5  1  0  0  0  0
  4  5  1  0  0  0  0
  3  6  1  0  0  0  0
  4  7  1  0  0  0  0
  6  7  1  0  0  0  0
  3  8  1  0  0  0  0
  4  9  1  0  0  0  0
  8  9  1  0  0  0  0
  1 10  2  0  0  0  0
  2 10  1  0  0  0  0
  6 10  1  0  0  0  0
  2 11  1  0  0  0  0
 11 12  2  0  0  0  0
 11 13  1  0  0  0  0
 12 14  1  0  0  0  0
 13 15  2  0  0  0  0
 14 16  2  0  0  0  0
 15 16  1  0  0  0  0
 12 17  1  0  0  0  0
 13 18  1  0  0  0  0
 16 19  1  0  0  0  0
  2 20  1  0  0  0  0
  3 21  1  0  0  0  0
  4 22  1  0  0  0  0
  5 23  1  0  0  0  0
  5 24  1  0  0  0  0
  6 25  1  0  0  0  0
  7 26  1  0  0  0  0
  7 27  1  0  0  0  0
  8 28  1  0  0  0  0
  8 29  1  0  0  0  0
  9 30  1  0  0  0  0
  9 31  1  0  0  0  0
 14 32  1  0  0  0  0
 15 33  1  0  0  0  0
 17 34  1  0  0  0  0
 17 35  1  0  0  0  0
 17 36  1  0  0  0  0
 18 37  1  0  0  0  0
 18 38  1  0  0  0  0
 18 39  1  0  0  0  0
 19 40  1  0  0  0  0
 19 41  1  0  0  0  0
 19 42  1  0  0  0  0
M  END
$$$$
