7VNR
  PyMOL3.1          3D                             0

 42 44  0  0  0  0  0  0  0  0999 V2000
  121.5750  123.6400  136.8200 O   0  0  0  0  0  0  0  0  0  0  0  0
  120.2240  123.1260  138.5670 N   0  0  0  0  0  0  0  0  0  0  0  0
  118.4460  124.1550  136.7740 C   0  0  0  0  0  0  0  0  0  0  0  0
  118.8020  125.1910  135.0690 C   0  0  0  0  0  0  0  0  0  0  0  0
  118.5220  123.9950  135.4820 C   0  0  0  0  0  0  0  0  0  0  0  0
  119.6250  124.8940  137.1590 C   0  0  0  0  0  0  0  0  0  0  0  0
  119.9760  125.7290  135.9090 C   0  0  0  0  0  0  0  0  0  0  0  0
  117.2210  125.0890  136.9110 C   0  0  0  0  0  0  0  0  0  0  0  0
  117.6050  125.9240  135.5240 C   0  0  0  0  0  0  0  0  0  0  0  0
  120.6020  123.8670  137.4320 C   0  0  0  0  0  0  0  0  0  0  0  0
  121.0050  122.0670  139.0120 C   0  0  0  0  0  0  0  0  0  0  0  0
  122.2020  122.3040  139.5310 C   0  0  0  0  0  0  0  0  0  0  0  0
  120.4790  120.8560  138.9050 C   0  0  0  0  0  0  0  0  0  0  0  0
  122.9290  121.2500  139.9600 C   0  0  0  0  0  0  0  0  0  0  0  0
  121.1840  119.7850  139.3250 C   0  0  0  0  0  0  0  0  0  0  0  0
  122.4140  120.0240  139.8490 C   0  0  0  0  0  0  0  0  0  0  0  0
  122.6840  123.7180  139.6000 C   0  0  0  0  0  0  0  0  0  0  0  0
  119.1280  120.7890  138.2900 C   0  0  0  0  0  0  0  0  0  0  0  0
  123.2420  118.9030  140.3370 C   0  0  0  0  0  0  0  0  0  0  0  0
  119.3910  123.3600  139.0350 H   0  0  0  0  0  0  0  0  0  0  0  0
  118.3200  123.2340  137.2870 H   0  0  0  0  0  0  0  0  0  0  0  0
  118.9570  125.2540  134.0210 H   0  0  0  0  0  0  0  0  0  0  0  0
  117.5520  123.7370  135.1100 H   0  0  0  0  0  0  0  0  0  0  0  0
  119.2870  123.2850  135.2320 H   0  0  0  0  0  0  0  0  0  0  0  0
  119.4440  125.4840  138.0310 H   0  0  0  0  0  0  0  0  0  0  0  0
  120.9270  125.4530  135.5040 H   0  0  0  0  0  0  0  0  0  0  0  0
  119.8450  126.7710  136.1090 H   0  0  0  0  0  0  0  0  0  0  0  0
  116.3160  124.5170  136.7980 H   0  0  0  0  0  0  0  0  0  0  0  0
  117.2880  125.6770  137.8110 H   0  0  0  0  0  0  0  0  0  0  0  0
  117.8690  126.9390  135.7360 H   0  0  0  0  0  0  0  0  0  0  0  0
  116.8420  125.8030  134.7880 H   0  0  0  0  0  0  0  0  0  0  0  0
  123.8930  121.3770  140.3790 H   0  0  0  0  0  0  0  0  0  0  0  0
  120.7910  118.7990  139.2510 H   0  0  0  0  0  0  0  0  0  0  0  0
  123.2150  123.9300  138.6850 H   0  0  0  0  0  0  0  0  0  0  0  0
  123.3170  123.8410  140.4600 H   0  0  0  0  0  0  0  0  0  0  0  0
  121.8270  124.3700  139.6810 H   0  0  0  0  0  0  0  0  0  0  0  0
  118.8950  119.7780  138.0170 H   0  0  0  0  0  0  0  0  0  0  0  0
  119.1780  121.4020  137.4100 H   0  0  0  0  0  0  0  0  0  0  0  0
  118.3910  121.1890  138.9650 H   0  0  0  0  0  0  0  0  0  0  0  0
  123.9250  119.3070  141.0650 H   0  0  0  0  0  0  0  0  0  0  0  0
  123.7850  118.4990  139.4940 H   0  0  0  0  0  0  0  0  0  0  0  0
  122.5850  118.1710  140.7760 H   0  0  0  0  0  0  0  0  0  0  0  0
  3  5  1  0  0  0  0
  4  5  1  0  0  0  0
  3  6  1  0  0  0  0
  4  7  1  0  0  0  0
  6  7  1  0  0  0  0
  3  8  1  0  0  0  0
  4  9  1  0  0  0  0
  8  9  1  0  0  0  0
  1 10  2  0  0  0  0
  2 10  1  0  0  0  0
  6 10  1  0  0  0  0
  2 11  1  0  0  0  0
 11 12  2  0  0  0  0
 11 13  1  0  0  0  0
 12 14  1  0  0  0  0
 13 15  2  0  0  0  0
 14 16  2  0  0  0  0
 15 16  1  0  0  0  0
 12 17  1  0  0  0  0
 13 18  1  0  0  0  0
 16 19  1  0  0  0  0
  2 20  1  0  0  0  0
  3 21  1  0  0  0  0
  4 22  1  0  0  0  0
  5 23  1  0  0  0  0
  5 24  1  0  0  0  0
  6 25  1  0  0  0  0
  7 26  1  0  0  0  0
  7 27  1  0  0  0  0
  8 28  1  0  0  0  0
  8 29  1  0  0  0  0
  9 30  1  0  0  0  0
  9 31  1  0  0  0  0
 14 32  1  0  0  0  0
 15 33  1  0  0  0  0
 17 34  1  0  0  0  0
 17 35  1  0  0  0  0
 17 36  1  0  0  0  0
 18 37  1  0  0  0  0
 18 38  1  0  0  0  0
 18 39  1  0  0  0  0
 19 40  1  0  0  0  0
 19 41  1  0  0  0  0
 19 42  1  0  0  0  0
M  END
$$$$
