6ZGV
  PyMOL3.1          3D                             0

 17 18  0  0  0  0  0  0  0  0999 V2000
   -8.5610    8.6970  -96.8200 N   0  0  0  0  0  0  0  0  0  0  0  0
   -5.0250    6.8850  -92.5960 C   0  0  0  0  0  0  0  0  0  0  0  0
   -7.3990    6.9100  -97.6400 O   0  0  0  0  0  0  0  0  0  0  0  0
   -4.5750    6.2680  -91.0590 Cl  0  0  0  0  0  0  0  0  0  0  0  0
   -4.4170    6.3820  -93.7470 C   0  0  0  0  0  0  0  0  0  0  0  0
   -9.9990    7.4470  -98.2560 N   0  0  0  0  0  0  0  0  0  0  0  0
   -4.8050    6.9390  -94.9520 C   0  0  0  0  0  0  0  0  0  0  0  0
  -10.8160    9.2920  -96.8170 N   0  0  0  0  0  0  0  0  0  0  0  0
   -5.7890    7.9580  -95.0100 C   0  0  0  0  0  0  0  0  0  0  0  0
   -6.1800    8.5640  -96.3180 C   0  0  0  0  0  0  0  0  0  0  0  0
   -7.4120    7.9450  -97.0010 C   0  0  0  0  0  0  0  0  0  0  0  0
   -9.8220    8.4550  -97.3470 C   0  0  0  0  0  0  0  0  0  0  0  0
  -11.2910    7.2840  -98.6560 C   0  0  0  0  0  0  0  0  0  0  0  0
  -12.3670    8.0640  -98.1860 C   0  0  0  0  0  0  0  0  0  0  0  0
  -12.0700    9.0660  -97.2570 C   0  0  0  0  0  0  0  0  0  0  0  0
   -6.3610    8.4310  -93.8610 C   0  0  0  0  0  0  0  0  0  0  0  0
   -5.9820    7.8960  -92.6240 C   0  0  0  0  0  0  0  0  0  0  0  0
  2  4  1  0  0  0  0
  2  5  2  0  0  0  0
  5  7  1  0  0  0  0
  7  9  2  0  0  0  0
  9 10  1  0  0  0  0
  1 11  1  0  0  0  0
  3 11  2  0  0  0  0
 10 11  1  0  0  0  0
  1 12  1  0  0  0  0
  6 12  1  0  0  0  0
  8 12  2  0  0  0  0
  6 13  2  0  0  0  0
 13 14  1  0  0  0  0
  8 15  1  0  0  0  0
 14 15  2  0  0  0  0
  9 16  1  0  0  0  0
  2 17  1  0  0  0  0
 16 17  2  0  0  0  0
M  END
$$$$
