7D4Q
  PyMOL3.1          3D                             0

 32 35  0  0  0  0  0  0  0  0999 V2000
  170.8160  156.3880  124.7080 Cl  0  0  0  0  0  0  0  0  0  0  0  0
  168.3490  159.1700  129.7540 Cl  0  0  0  0  0  0  0  0  0  0  0  0
  165.1400  154.8660  129.2780 O   0  0  0  0  0  0  0  0  0  0  0  0
  163.4340  155.7830  124.1200 O   0  0  0  0  0  0  0  0  0  0  0  0
  160.9540  159.3260  125.5040 O   0  0  0  0  0  0  0  0  0  0  0  0
  162.5580  157.1760  120.4580 O   0  0  0  0  0  0  0  0  0  0  0  0
  164.3350  155.3370  127.0110 N   0  0  0  0  0  0  0  0  0  0  0  0
  162.1650  157.5680  124.6860 N   0  0  0  0  0  0  0  0  0  0  0  0
  162.1320  158.2060  127.1210 N   0  0  0  0  0  0  0  0  0  0  0  0
  163.6140  156.6620  128.5970 N   0  0  0  0  0  0  0  0  0  0  0  0
  163.5210  156.2550  126.4510 C   0  0  0  0  0  0  0  0  0  0  0  0
  163.0730  157.0720  127.4380 C   0  0  0  0  0  0  0  0  0  0  0  0
  163.0560  156.4910  124.9910 C   0  0  0  0  0  0  0  0  0  0  0  0
  161.7250  157.7840  123.3210 C   0  0  0  0  0  0  0  0  0  0  0  0
  165.0430  154.2650  126.3320 C   0  0  0  0  0  0  0  0  0  0  0  0
  161.6950  158.4320  125.7440 C   0  0  0  0  0  0  0  0  0  0  0  0
  164.3960  155.5920  128.3380 C   0  0  0  0  0  0  0  0  0  0  0  0
  162.8500  158.3890  122.4900 C   0  0  0  0  0  0  0  0  0  0  0  0
  166.4300  154.7680  125.9450 C   0  0  0  0  0  0  0  0  0  0  0  0
  161.6570  159.0770  128.1810 C   0  0  0  0  0  0  0  0  0  0  0  0
  162.3720  158.4350  121.0420 C   0  0  0  0  0  0  0  0  0  0  0  0
  167.6060  154.5850  126.9030 C   0  0  0  0  0  0  0  0  0  0  0  0
  166.6370  155.4670  124.6030 C   0  0  0  0  0  0  0  0  0  0  0  0
  165.8220  155.7450  130.1260 C   0  0  0  0  0  0  0  0  0  0  0  0
  168.9950  155.0940  126.5150 C   0  0  0  0  0  0  0  0  0  0  0  0
  168.0230  155.9750  124.2150 C   0  0  0  0  0  0  0  0  0  0  0  0
  169.2000  155.7900  125.1700 C   0  0  0  0  0  0  0  0  0  0  0  0
  166.6450  156.8810  129.5430 C   0  0  0  0  0  0  0  0  0  0  0  0
  165.7410  155.5560  131.6390 C   0  0  0  0  0  0  0  0  0  0  0  0
  167.3900  157.8390  130.4570 C   0  0  0  0  0  0  0  0  0  0  0  0
  166.4930  156.5170  132.5690 C   0  0  0  0  0  0  0  0  0  0  0  0
  167.3190  157.6630  131.9720 C   0  0  0  0  0  0  0  0  0  0  0  0
  7 11  1  0  0  0  0
  9 12  1  0  0  0  0
 10 12  1  0  0  0  0
 11 12  2  0  0  0  0
  4 13  2  0  0  0  0
  8 13  1  0  0  0  0
 11 13  1  0  0  0  0
  8 14  1  0  0  0  0
  7 15  1  0  0  0  0
  5 16  2  0  0  0  0
  8 16  1  0  0  0  0
  9 16  1  0  0  0  0
  3 17  1  0  0  0  0
  7 17  1  0  0  0  0
 10 17  2  0  0  0  0
 14 18  1  0  0  0  0
 15 19  1  0  0  0  0
  9 20  1  0  0  0  0
  6 21  1  0  0  0  0
 18 21  1  0  0  0  0
 19 22  2  0  0  0  0
 19 23  1  0  0  0  0
  3 24  1  0  0  0  0
 22 25  1  0  0  0  0
 23 26  2  0  0  0  0
  1 27  1  0  0  0  0
 25 27  2  0  0  0  0
 26 27  1  0  0  0  0
 24 28  2  0  0  0  0
 24 29  1  0  0  0  0
  2 30  1  0  0  0  0
 28 30  1  0  0  0  0
 29 31  2  0  0  0  0
 30 32  2  0  0  0  0
 31 32  1  0  0  0  0
M  END
$$$$
