6X0P
  PyMOL3.1          3D                             0

 23 25  0  0  0  0  0  0  0  0999 V2000
   18.0682  -34.1615  -20.3683 N   0  0  0  0  0  0  0  0  0  0  0  0
   17.6107  -35.1060  -21.3510 C   0  0  0  0  0  0  0  0  0  0  0  0
   18.3499  -35.1459  -22.6709 C   0  0  0  0  0  0  0  0  0  0  0  0
   19.1778  -34.0906  -23.0144 C   0  0  0  0  0  0  0  0  0  0  0  0
   19.8671  -34.1190  -24.2141 C   0  0  0  0  0  0  0  0  0  0  0  0
   20.7960  -32.9841  -24.6268 C   0  0  0  0  0  0  0  0  0  0  0  0
   21.9851  -33.1882  -25.3061 C   0  0  0  0  0  0  0  0  0  0  0  0
   22.5444  -32.0058  -25.5177 N   0  0  0  0  0  0  0  0  0  0  0  0
   23.8210  -31.7991  -26.1957 C   0  0  0  0  0  0  0  0  0  0  0  0
   23.7434  -32.3705  -27.6107 C   0  0  0  0  0  0  0  0  0  0  0  0
   22.9985  -31.4723  -28.3905 O   0  0  0  0  0  0  0  0  0  0  0  0
   21.7474  -31.0178  -25.0019 C   0  0  0  0  0  0  0  0  0  0  0  0
   20.6409  -31.5940  -24.4278 C   0  0  0  0  0  0  0  0  0  0  0  0
   19.6511  -30.7747  -23.8201 C   0  0  0  0  0  0  0  0  0  0  0  0
   19.8088  -29.3922  -23.7996 C   0  0  0  0  0  0  0  0  0  0  0  0
   20.9456  -28.8157  -24.3746 C   0  0  0  0  0  0  0  0  0  0  0  0
   21.1287  -27.3014  -24.3618 C   0  0  0  0  0  0  0  0  0  0  0  0
   21.4461  -26.8515  -25.7134 N   0  0  0  0  0  0  0  0  0  0  0  0
   21.9080  -29.6117  -24.9688 C   0  0  0  0  0  0  0  0  0  0  0  0
   19.7255  -35.2024  -25.0677 C   0  0  0  0  0  0  0  0  0  0  0  0
   18.9051  -36.2596  -24.7105 C   0  0  0  0  0  0  0  0  0  0  0  0
   18.2096  -36.2317  -23.5178 C   0  0  0  0  0  0  0  0  0  0  0  0
   16.3754  -36.0906  -21.0236 S   0  0  0  0  0  0  0  0  0  0  0  0
  1  2  1  0  0  0  0
  2  3  1  0  0  0  0
  3  4  1  0  0  0  0
  4  5  2  0  0  0  0
  5  6  1  0  0  0  0
  6  7  2  0  0  0  0
  7  8  1  0  0  0  0
  8  9  1  0  0  0  0
  9 10  1  0  0  0  0
 10 11  1  0  0  0  0
  8 12  1  0  0  0  0
  6 13  1  0  0  0  0
 12 13  1  0  0  0  0
 13 14  2  0  0  0  0
 14 15  1  0  0  0  0
 15 16  2  0  0  0  0
 16 17  1  0  0  0  0
 17 18  1  0  0  0  0
 12 19  2  0  0  0  0
 16 19  1  0  0  0  0
  5 20  1  0  0  0  0
 20 21  2  0  0  0  0
  3 22  2  0  0  0  0
 21 22  1  0  0  0  0
  2 23  2  0  0  0  0
M  END
$$$$
