8YN8
  PyMOL3.1          3D                             0

 16 17  0  0  0  0  0  0  0  0999 V2000
   87.7790  117.9610  121.0690 C   0  0  0  0  0  0  0  0  0  0  0  0
   86.4150  117.8930  121.7490 C   0  0  0  0  0  0  0  0  0  0  0  0
   86.2360  116.6350  122.5930 C   0  0  0  0  0  0  0  0  0  0  0  0
   84.8960  115.9620  122.3060 C   0  0  0  0  0  0  0  0  0  0  0  0
   83.6890  116.5950  122.0710 C   0  0  0  0  0  0  0  0  0  0  0  0
   82.7870  115.6540  121.8650 N   0  0  0  0  0  0  0  0  0  0  0  0
   83.3810  114.4800  121.9650 C   0  0  0  0  0  0  0  0  0  0  0  0
   84.6610  114.6650  122.2310 N   0  0  0  0  0  0  0  0  0  0  0  0
   87.8880  119.2210  120.4730 O   0  0  0  0  0  0  0  0  0  0  0  0
   88.2200  120.2380  121.3720 C   0  0  0  0  0  0  0  0  0  0  0  0
   87.6010  121.5380  120.8630 C   0  0  0  0  0  0  0  0  0  0  0  0
   86.9500  121.5590  119.6410 C   0  0  0  0  0  0  0  0  0  0  0  0
   86.3870  122.7360  119.1770 C   0  0  0  0  0  0  0  0  0  0  0  0
   86.4740  123.8910  119.9370 C   0  0  0  0  0  0  0  0  0  0  0  0
   87.1240  123.8700  121.1600 C   0  0  0  0  0  0  0  0  0  0  0  0
   87.6880  122.6920  121.6240 C   0  0  0  0  0  0  0  0  0  0  0  0
  1  2  1  0  0  0  0
  2  3  1  0  0  0  0
  3  4  1  0  0  0  0
  4  5  2  0  0  0  0
  5  6  1  0  0  0  0
  6  7  2  0  0  0  0
  4  8  1  0  0  0  0
  7  8  1  0  0  0  0
  1  9  1  0  0  0  0
  9 10  1  0  0  0  0
 10 11  1  0  0  0  0
 11 12  1  0  0  0  0
 12 13  2  0  0  0  0
 13 14  1  0  0  0  0
 14 15  2  0  0  0  0
 11 16  2  0  0  0  0
 15 16  1  0  0  0  0
M  END
$$$$
