8VLS
  PyMOL3.1          3D                             0

 25 27  0  0  0  0  0  0  0  0999 V2000
  109.1440  125.3910  123.7530 C   0  0  0  0  0  0  0  0  0  0  0  0
  110.0250  126.5720  123.9370 N   0  0  0  0  0  0  0  0  0  0  0  0
  111.1170  125.6640  125.7300 O   0  0  0  0  0  0  0  0  0  0  0  0
  107.1870  127.2130  123.1650 S   0  0  0  0  0  0  0  0  0  0  0  0
  109.7030  123.9720  123.9530 C   0  0  0  0  0  0  0  0  0  0  0  0
  110.6600  129.0020  126.9480 N   0  0  0  0  0  0  0  0  0  0  0  0
  110.8060  130.8850  125.2240 O   0  0  0  0  0  0  0  0  0  0  0  0
  108.9140  122.9170  123.7920 C   0  0  0  0  0  0  0  0  0  0  0  0
  107.4330  123.1160  123.4010 C   0  0  0  0  0  0  0  0  0  0  0  0
  106.9520  124.3400  123.2290 C   0  0  0  0  0  0  0  0  0  0  0  0
  107.8610  125.5590  123.4160 C   0  0  0  0  0  0  0  0  0  0  0  0
  106.1800  127.6900  124.5900 C   0  0  0  0  0  0  0  0  0  0  0  0
  105.4980  128.9690  124.2910 C   0  0  0  0  0  0  0  0  0  0  0  0
  111.0150  126.5790  125.0160 C   0  0  0  0  0  0  0  0  0  0  0  0
  111.9440  127.8130  125.2170 C   0  0  0  0  0  0  0  0  0  0  0  0
  111.8880  128.2570  126.6880 C   0  0  0  0  0  0  0  0  0  0  0  0
  110.1410  130.1160  126.2030 C   0  0  0  0  0  0  0  0  0  0  0  0
  108.5620  130.2950  126.7700 C   0  0  0  0  0  0  0  0  0  0  0  0
  108.4560  129.3370  127.7390 C   0  0  0  0  0  0  0  0  0  0  0  0
  109.7230  128.7100  127.7420 C   0  0  0  0  0  0  0  0  0  0  0  0
  107.3740  131.2100  126.4520 C   0  0  0  0  0  0  0  0  0  0  0  0
  106.2250  131.0690  127.1280 C   0  0  0  0  0  0  0  0  0  0  0  0
  106.1020  129.9750  128.2360 C   0  0  0  0  0  0  0  0  0  0  0  0
  107.1390  129.1790  128.5110 C   0  0  0  0  0  0  0  0  0  0  0  0
  113.0990  129.1610  126.9810 C   0  0  0  0  0  0  0  0  0  0  0  0
  1  2  1  0  0  0  0
  1  5  1  0  0  0  0
  5  8  2  0  0  0  0
  8  9  1  0  0  0  0
  9 10  2  0  0  0  0
  1 11  2  0  0  0  0
  4 11  1  0  0  0  0
 10 11  1  0  0  0  0
  4 12  1  0  0  0  0
 12 13  1  0  0  0  0
  2 14  1  0  0  0  0
  3 14  2  0  0  0  0
 14 15  1  0  0  0  0
  6 16  1  0  0  0  0
 15 16  1  0  0  0  0
  6 17  1  0  0  0  0
  7 17  2  0  0  0  0
 17 18  1  0  0  0  0
 18 19  1  0  0  0  0
  6 20  1  0  0  0  0
 19 20  1  0  0  0  0
 18 21  2  0  0  0  0
 21 22  1  0  0  0  0
 22 23  2  0  0  0  0
 19 24  2  0  0  0  0
 23 24  1  0  0  0  0
 16 25  1  0  0  0  0
M  END
$$$$
