8VLS
  PyMOL3.1          3D                             0

 25 27  0  0  0  0  0  0  0  0999 V2000
  126.0610  154.6490  139.9220 C   0  0  0  0  0  0  0  0  0  0  0  0
  125.5260  153.2790  139.7340 N   0  0  0  0  0  0  0  0  0  0  0  0
  126.8170  152.8680  137.8960 O   0  0  0  0  0  0  0  0  0  0  0  0
  123.4670  155.3140  140.4320 S   0  0  0  0  0  0  0  0  0  0  0  0
  127.5650  154.9300  139.7590 C   0  0  0  0  0  0  0  0  0  0  0  0
  123.7580  151.5670  136.7300 N   0  0  0  0  0  0  0  0  0  0  0  0
  122.2090  150.5210  138.4750 O   0  0  0  0  0  0  0  0  0  0  0  0
  128.0300  156.1620  139.9280 C   0  0  0  0  0  0  0  0  0  0  0  0
  127.0610  157.3110  140.2870 C   0  0  0  0  0  0  0  0  0  0  0  0
  125.7650  157.0670  140.4270 C   0  0  0  0  0  0  0  0  0  0  0  0
  125.2270  155.6450  140.2330 C   0  0  0  0  0  0  0  0  0  0  0  0
  122.5650  156.0810  139.0630 C   0  0  0  0  0  0  0  0  0  0  0  0
  121.1180  156.0560  139.3640 C   0  0  0  0  0  0  0  0  0  0  0  0
  126.0110  152.4550  138.6270 C   0  0  0  0  0  0  0  0  0  0  0  0
  125.4500  151.0150  138.4250 C   0  0  0  0  0  0  0  0  0  0  0  0
  125.0040  150.8450  136.9640 C   0  0  0  0  0  0  0  0  0  0  0  0
  122.5380  151.4700  137.4840 C   0  0  0  0  0  0  0  0  0  0  0  0
  121.5930  152.7450  136.9090 C   0  0  0  0  0  0  0  0  0  0  0  0
  122.3700  153.3110  135.9380 C   0  0  0  0  0  0  0  0  0  0  0  0
  123.5480  152.5290  135.9400 C   0  0  0  0  0  0  0  0  0  0  0  0
  120.2060  153.3170  137.2220 C   0  0  0  0  0  0  0  0  0  0  0  0
  119.7530  154.3790  136.5400 C   0  0  0  0  0  0  0  0  0  0  0  0
  120.6400  155.0280  135.4300 C   0  0  0  0  0  0  0  0  0  0  0  0
  121.8490  154.5270  135.1590 C   0  0  0  0  0  0  0  0  0  0  0  0
  124.7850  149.3480  136.6820 C   0  0  0  0  0  0  0  0  0  0  0  0
  1  2  1  0  0  0  0
  1  5  1  0  0  0  0
  5  8  2  0  0  0  0
  8  9  1  0  0  0  0
  9 10  2  0  0  0  0
  1 11  2  0  0  0  0
  4 11  1  0  0  0  0
 10 11  1  0  0  0  0
  4 12  1  0  0  0  0
 12 13  1  0  0  0  0
  2 14  1  0  0  0  0
  3 14  2  0  0  0  0
 14 15  1  0  0  0  0
  6 16  1  0  0  0  0
 15 16  1  0  0  0  0
  6 17  1  0  0  0  0
  7 17  2  0  0  0  0
 17 18  1  0  0  0  0
 18 19  1  0  0  0  0
  6 20  1  0  0  0  0
 19 20  1  0  0  0  0
 18 21  2  0  0  0  0
 21 22  1  0  0  0  0
 22 23  2  0  0  0  0
 19 24  2  0  0  0  0
 23 24  1  0  0  0  0
 16 25  1  0  0  0  0
M  END
$$$$
