8VLS
  PyMOL3.1          3D                             0

 25 27  0  0  0  0  0  0  0  0999 V2000
  109.2250  138.2500  139.9340 C   0  0  0  0  0  0  0  0  0  0  0  0
  110.1880  137.1360  139.7580 N   0  0  0  0  0  0  0  0  0  0  0  0
  111.0220  137.9940  137.8170 O   0  0  0  0  0  0  0  0  0  0  0  0
  107.4130  136.2650  140.3690 S   0  0  0  0  0  0  0  0  0  0  0  0
  109.6890  139.7100  139.8010 C   0  0  0  0  0  0  0  0  0  0  0  0
  110.7860  134.7090  136.7300 N   0  0  0  0  0  0  0  0  0  0  0  0
  111.0490  132.8340  138.4470 O   0  0  0  0  0  0  0  0  0  0  0  0
  108.8160  140.6980  139.9580 C   0  0  0  0  0  0  0  0  0  0  0  0
  107.3370  140.3780  140.2740 C   0  0  0  0  0  0  0  0  0  0  0  0
  106.9380  139.1180  140.3880 C   0  0  0  0  0  0  0  0  0  0  0  0
  107.9470  137.9780  140.2070 C   0  0  0  0  0  0  0  0  0  0  0  0
  106.1990  135.9080  139.0760 C   0  0  0  0  0  0  0  0  0  0  0  0
  105.4900  134.6540  139.4110 C   0  0  0  0  0  0  0  0  0  0  0  0
  111.0740  137.1280  138.5950 C   0  0  0  0  0  0  0  0  0  0  0  0
  112.0890  135.9640  138.3930 C   0  0  0  0  0  0  0  0  0  0  0  0
  112.0120  135.4710  136.9390 C   0  0  0  0  0  0  0  0  0  0  0  0
  110.3250  133.5860  137.4960 C   0  0  0  0  0  0  0  0  0  0  0  0
  108.7260  133.3720  136.9990 C   0  0  0  0  0  0  0  0  0  0  0  0
  108.5530  134.3340  136.0450 C   0  0  0  0  0  0  0  0  0  0  0  0
  109.8030  134.9940  135.9900 C   0  0  0  0  0  0  0  0  0  0  0  0
  107.5780  132.4250  137.3640 C   0  0  0  0  0  0  0  0  0  0  0  0
  106.3960  132.5410  136.7440 C   0  0  0  0  0  0  0  0  0  0  0  0
  106.1940  133.6400  135.6540 C   0  0  0  0  0  0  0  0  0  0  0  0
  107.1970  134.4650  135.3360 C   0  0  0  0  0  0  0  0  0  0  0  0
  113.2240  134.5640  136.6570 C   0  0  0  0  0  0  0  0  0  0  0  0
  1  2  1  0  0  0  0
  1  5  1  0  0  0  0
  5  8  2  0  0  0  0
  8  9  1  0  0  0  0
  9 10  2  0  0  0  0
  1 11  2  0  0  0  0
  4 11  1  0  0  0  0
 10 11  1  0  0  0  0
  4 12  1  0  0  0  0
 12 13  1  0  0  0  0
  2 14  1  0  0  0  0
  3 14  2  0  0  0  0
 14 15  1  0  0  0  0
  6 16  1  0  0  0  0
 15 16  1  0  0  0  0
  6 17  1  0  0  0  0
  7 17  2  0  0  0  0
 17 18  1  0  0  0  0
 18 19  1  0  0  0  0
  6 20  1  0  0  0  0
 19 20  1  0  0  0  0
 18 21  2  0  0  0  0
 21 22  1  0  0  0  0
 22 23  2  0  0  0  0
 19 24  2  0  0  0  0
 23 24  1  0  0  0  0
 16 25  1  0  0  0  0
M  END
$$$$
