8VLS
  PyMOL3.1          3D                             0

 25 27  0  0  0  0  0  0  0  0999 V2000
  137.6190  154.6310  123.7660 C   0  0  0  0  0  0  0  0  0  0  0  0
  138.1250  153.2510  123.9650 N   0  0  0  0  0  0  0  0  0  0  0  0
  136.8470  152.8940  125.8220 O   0  0  0  0  0  0  0  0  0  0  0  0
  140.2320  155.2310  123.2970 S   0  0  0  0  0  0  0  0  0  0  0  0
  136.1190  154.9440  123.9070 C   0  0  0  0  0  0  0  0  0  0  0  0
  139.8900  151.5730  126.9560 N   0  0  0  0  0  0  0  0  0  0  0  0
  141.4050  150.5190  125.1870 O   0  0  0  0  0  0  0  0  0  0  0  0
  135.6840  156.1860  123.7290 C   0  0  0  0  0  0  0  0  0  0  0  0
  136.6830  157.3130  123.3820 C   0  0  0  0  0  0  0  0  0  0  0  0
  137.9760  157.0410  123.2620 C   0  0  0  0  0  0  0  0  0  0  0  0
  138.4780  155.6070  123.4670 C   0  0  0  0  0  0  0  0  0  0  0  0
  141.1500  156.0990  124.5930 C   0  0  0  0  0  0  0  0  0  0  0  0
  142.5840  156.1210  124.2330 C   0  0  0  0  0  0  0  0  0  0  0  0
  137.6350  152.4520  125.0870 C   0  0  0  0  0  0  0  0  0  0  0  0
  138.1670  151.0040  125.3000 C   0  0  0  0  0  0  0  0  0  0  0  0
  138.6410  150.8470  126.7540 C   0  0  0  0  0  0  0  0  0  0  0  0
  141.0970  151.4680  126.1860 C   0  0  0  0  0  0  0  0  0  0  0  0
  142.0610  152.7330  126.7520 C   0  0  0  0  0  0  0  0  0  0  0  0
  141.3040  153.3000  127.7390 C   0  0  0  0  0  0  0  0  0  0  0  0
  140.1210  152.5250  127.7520 C   0  0  0  0  0  0  0  0  0  0  0  0
  143.4470  153.2990  126.4200 C   0  0  0  0  0  0  0  0  0  0  0  0
  143.9180  154.3540  127.1000 C   0  0  0  0  0  0  0  0  0  0  0  0
  143.0540  155.0030  128.2280 C   0  0  0  0  0  0  0  0  0  0  0  0
  141.8460  154.5080  128.5160 C   0  0  0  0  0  0  0  0  0  0  0  0
  138.8690  149.3530  127.0460 C   0  0  0  0  0  0  0  0  0  0  0  0
  1  2  1  0  0  0  0
  1  5  1  0  0  0  0
  5  8  2  0  0  0  0
  8  9  1  0  0  0  0
  9 10  2  0  0  0  0
  1 11  2  0  0  0  0
  4 11  1  0  0  0  0
 10 11  1  0  0  0  0
  4 12  1  0  0  0  0
 12 13  1  0  0  0  0
  2 14  1  0  0  0  0
  3 14  2  0  0  0  0
 14 15  1  0  0  0  0
  6 16  1  0  0  0  0
 15 16  1  0  0  0  0
  6 17  1  0  0  0  0
  7 17  2  0  0  0  0
 17 18  1  0  0  0  0
 18 19  1  0  0  0  0
  6 20  1  0  0  0  0
 19 20  1  0  0  0  0
 18 21  2  0  0  0  0
 21 22  1  0  0  0  0
 22 23  2  0  0  0  0
 19 24  2  0  0  0  0
 23 24  1  0  0  0  0
 16 25  1  0  0  0  0
M  END
$$$$
