8VLS
  PyMOL3.1          3D                             0

 25 27  0  0  0  0  0  0  0  0999 V2000
  126.0570  109.0510  123.7710 C   0  0  0  0  0  0  0  0  0  0  0  0
  125.5430  110.4270  123.9750 N   0  0  0  0  0  0  0  0  0  0  0  0
  126.8390  110.7960  125.8180 O   0  0  0  0  0  0  0  0  0  0  0  0
  123.4490  108.4400  123.2790 S   0  0  0  0  0  0  0  0  0  0  0  0
  127.5570  108.7440  123.9180 C   0  0  0  0  0  0  0  0  0  0  0  0
  123.7780  112.0960  126.9650 N   0  0  0  0  0  0  0  0  0  0  0  0
  122.2630  113.1520  125.1980 O   0  0  0  0  0  0  0  0  0  0  0  0
  128.0000  107.5060  123.7350 C   0  0  0  0  0  0  0  0  0  0  0  0
  127.0090  106.3760  123.3740 C   0  0  0  0  0  0  0  0  0  0  0  0
  125.7150  106.6430  123.2470 C   0  0  0  0  0  0  0  0  0  0  0  0
  125.2040  108.0730  123.4590 C   0  0  0  0  0  0  0  0  0  0  0  0
  122.5340  107.5900  124.5880 C   0  0  0  0  0  0  0  0  0  0  0  0
  121.0970  107.5700  124.2370 C   0  0  0  0  0  0  0  0  0  0  0  0
  126.0400  111.2310  125.0920 C   0  0  0  0  0  0  0  0  0  0  0  0
  125.4990  112.6750  125.3100 C   0  0  0  0  0  0  0  0  0  0  0  0
  125.0270  112.8230  126.7660 C   0  0  0  0  0  0  0  0  0  0  0  0
  122.5710  112.2020  126.1950 C   0  0  0  0  0  0  0  0  0  0  0  0
  121.6070  110.9360  126.7590 C   0  0  0  0  0  0  0  0  0  0  0  0
  122.3640  110.3690  127.7450 C   0  0  0  0  0  0  0  0  0  0  0  0
  123.5460  111.1430  127.7610 C   0  0  0  0  0  0  0  0  0  0  0  0
  120.2220  110.3710  126.4260 C   0  0  0  0  0  0  0  0  0  0  0  0
  119.7510  109.3140  127.1050 C   0  0  0  0  0  0  0  0  0  0  0  0
  120.6150  108.6650  128.2320 C   0  0  0  0  0  0  0  0  0  0  0  0
  121.8220  109.1600  128.5210 C   0  0  0  0  0  0  0  0  0  0  0  0
  124.7990  114.3150  127.0670 C   0  0  0  0  0  0  0  0  0  0  0  0
  1  2  1  0  0  0  0
  1  5  1  0  0  0  0
  5  8  2  0  0  0  0
  8  9  1  0  0  0  0
  9 10  2  0  0  0  0
  1 11  2  0  0  0  0
  4 11  1  0  0  0  0
 10 11  1  0  0  0  0
  4 12  1  0  0  0  0
 12 13  1  0  0  0  0
  2 14  1  0  0  0  0
  3 14  2  0  0  0  0
 14 15  1  0  0  0  0
  6 16  1  0  0  0  0
 15 16  1  0  0  0  0
  6 17  1  0  0  0  0
  7 17  2  0  0  0  0
 17 18  1  0  0  0  0
 18 19  1  0  0  0  0
  6 20  1  0  0  0  0
 19 20  1  0  0  0  0
 18 21  2  0  0  0  0
 21 22  1  0  0  0  0
 22 23  2  0  0  0  0
 19 24  2  0  0  0  0
 23 24  1  0  0  0  0
 16 25  1  0  0  0  0
M  END
$$$$
