8YN3
  PyMOL3.1          3D                             0

  8  8  0  0  0  0  0  0  0  0999 V2000
   98.4540  111.2130   79.1320 N   0  0  0  0  0  0  0  0  0  0  0  0
   98.2070  112.3120   80.0500 C   0  0  0  0  0  0  0  0  0  0  0  0
   96.7270  112.4350   80.3000 C   0  0  0  0  0  0  0  0  0  0  0  0
   96.3100  113.8210   80.6690 C   0  0  0  0  0  0  0  0  0  0  0  0
   96.0660  114.3540   81.8890 C   0  0  0  0  0  0  0  0  0  0  0  0
   96.0960  114.7800   79.7090 N   0  0  0  0  0  0  0  0  0  0  0  0
   95.7280  115.8620   80.3610 C   0  0  0  0  0  0  0  0  0  0  0  0
   95.6940  115.6520   81.6740 N   0  0  0  0  0  0  0  0  0  0  0  0
  1  2  1  0  0  0  0
  2  3  1  0  0  0  0
  3  4  1  0  0  0  0
  4  5  2  0  0  0  0
  4  6  1  0  0  0  0
  6  7  2  0  0  0  0
  5  8  1  0  0  0  0
  7  8  1  0  0  0  0
M  END
$$$$
