9EPY
  PyMOL3.1          3D                             0

 74 84  0  0  0  0  0  0  0  0999 V2000
   34.7160    4.7440   27.0480 Cl  0  0  0  0  0  0  0  0  0  0  0  0
   35.7920    4.5190   28.3910 C   0  0  0  0  0  0  0  0  0  0  0  0
   36.9870    3.8630   28.1590 C   0  0  0  0  0  0  0  0  0  0  0  0
   37.9260    3.7290   29.1740 C   0  0  0  0  0  0  0  0  0  0  0  0
   39.2480    3.0600   28.9070 C   0  0  0  0  0  0  0  0  0  0  0  0
   39.6910    2.1990   30.0520 N   0  3  0  0  0  0  0  0  0  0  0  0
   40.5970    1.0340   29.7530 C   0  0  0  0  0  0  0  0  0  0  0  0
   41.9710    1.2830   29.1300 C   0  0  0  0  0  0  0  0  0  0  0  0
   42.4800    0.0950   29.9770 C   0  0  0  0  0  0  0  0  0  0  0  0
   43.8880    0.3000   30.5580 C   0  0  0  0  0  0  0  0  0  0  0  0
   44.2380   -0.8350   31.5010 C   0  0  0  0  0  0  0  0  0  0  0  0
   44.2240   -2.0890   30.7290 N   0  0  0  0  0  0  0  0  0  0  0  0
   45.3100   -3.2770   31.0670 S   0  0  0  0  0  0  0  0  0  0  0  0
   44.8290   -4.0190   32.5810 C   0  0  0  0  0  0  0  0  0  0  0  0
   45.2060   -3.4090   33.7710 C   0  0  0  0  0  0  0  0  0  0  0  0
   44.6840   -3.9090   34.9500 C   0  0  0  0  0  0  0  0  0  0  0  0
   44.9250   -3.3480   36.5590 S   0  0  0  0  0  0  0  0  0  0  0  0
   43.8430   -4.5930   37.1290 C   0  0  0  0  0  0  0  0  0  0  0  0
   43.5280   -4.7070   38.5840 C   0  0  0  0  0  0  0  0  0  0  0  0
   43.3430   -5.3640   36.2200 N   0  0  0  0  0  0  0  0  0  0  0  0
   43.8080   -4.9970   34.9610 C   0  0  0  0  0  0  0  0  0  0  0  0
   43.4540   -5.6000   33.7530 C   0  0  0  0  0  0  0  0  0  0  0  0
   43.9660   -5.1110   32.5620 C   0  0  0  0  0  0  0  0  0  0  0  0
   45.1680   -4.2570   30.0410 O   0  0  0  0  0  0  0  0  0  0  0  0
   46.5750   -2.6450   31.2890 O   0  0  0  0  0  0  0  0  0  0  0  0
   42.8700   -2.4110   30.2410 C   0  0  0  0  0  0  0  0  0  0  0  0
   42.4010   -1.2960   29.3200 C   0  0  0  0  0  0  0  0  0  0  0  0
   41.3350    0.3980   30.9620 C   0  0  0  0  0  0  0  0  0  0  0  0
   37.6290    4.2610   30.4210 C   0  0  0  0  0  0  0  0  0  0  0  0
   36.4300    4.9150   30.6560 C   0  0  0  0  0  0  0  0  0  0  0  0
   35.4800    5.0600   29.6410 C   0  0  0  0  0  0  0  0  0  0  0  0
   34.2430    5.8390   29.9310 C   0  0  0  0  0  0  0  0  0  0  0  0
   34.2970    7.0110   30.6880 C   0  0  0  0  0  0  0  0  0  0  0  0
   33.1440    7.7270   30.9680 C   0  0  0  0  0  0  0  0  0  0  0  0
   31.9210    7.2910   30.5000 C   0  0  0  0  0  0  0  0  0  0  0  0
   31.8470    6.1370   29.7500 C   0  0  0  0  0  0  0  0  0  0  0  0
   32.9960    5.4130   29.4660 C   0  0  0  0  0  0  0  0  0  0  0  0
    4.1180   37.0470   33.8790 Cl  0  0  0  0  0  0  0  0  0  0  0  0
    3.5130   37.7540   32.4150 C   0  0  0  0  0  0  0  0  0  0  0  0
    2.5700   38.7600   32.5220 C   0  0  0  0  0  0  0  0  0  0  0  0
    2.1390   39.4420   31.3920 C   0  0  0  0  0  0  0  0  0  0  0  0
    1.0670   40.4950   31.4920 C   0  0  0  0  0  0  0  0  0  0  0  0
    0.9830   41.3080   30.2390 N   0  3  0  0  0  0  0  0  0  0  0  0
    0.2900   42.6420   30.2050 C   0  0  0  0  0  0  0  0  0  0  0  0
   -0.4020   43.1680   31.4260 C   0  0  0  0  0  0  0  0  0  0  0  0
   -1.3830   43.8380   30.4370 C   0  0  0  0  0  0  0  0  0  0  0  0
   -0.9990   45.2650   30.0110 C   0  0  0  0  0  0  0  0  0  0  0  0
   -1.9850   45.8310   29.0060 C   0  0  0  0  0  0  0  0  0  0  0  0
   -3.3430   45.8010   29.5830 N   0  0  0  0  0  0  0  0  0  0  0  0
   -4.4920   46.8190   28.9860 S   0  0  0  0  0  0  0  0  0  0  0  0
   -5.1610   46.0790   27.5350 C   0  0  0  0  0  0  0  0  0  0  0  0
   -4.5500   46.3220   26.3080 C   0  0  0  0  0  0  0  0  0  0  0  0
   -5.1060   45.7520   25.1720 C   0  0  0  0  0  0  0  0  0  0  0  0
   -4.6000   45.8960   23.5160 S   0  0  0  0  0  0  0  0  0  0  0  0
   -5.9480   44.8940   23.0430 C   0  0  0  0  0  0  0  0  0  0  0  0
   -6.1970   44.6180   21.6090 C   0  0  0  0  0  0  0  0  0  0  0  0
   -6.7110   44.4770   24.0040 N   0  0  0  0  0  0  0  0  0  0  0  0
   -6.2520   44.9550   25.2390 C   0  0  0  0  0  0  0  0  0  0  0  0
   -6.8460   44.7230   26.4820 C   0  0  0  0  0  0  0  0  0  0  0  0
   -6.3010   45.2840   27.6310 C   0  0  0  0  0  0  0  0  0  0  0  0
   -5.5370   46.8690   29.9610 O   0  0  0  0  0  0  0  0  0  0  0  0
   -3.8210   48.0220   28.6020 O   0  0  0  0  0  0  0  0  0  0  0  0
   -3.7730   44.4250   29.8900 C   0  0  0  0  0  0  0  0  0  0  0  0
   -2.8430   43.8180   30.9210 C   0  0  0  0  0  0  0  0  0  0  0  0
   -1.0180   42.7390   29.4210 C   0  0  0  0  0  0  0  0  0  0  0  0
    2.6790   39.0820   30.1640 C   0  0  0  0  0  0  0  0  0  0  0  0
    3.6180   38.0720   30.0590 C   0  0  0  0  0  0  0  0  0  0  0  0
    4.0480   37.3760   31.1840 C   0  0  0  0  0  0  0  0  0  0  0  0
    4.8800   36.1610   30.9690 C   0  0  0  0  0  0  0  0  0  0  0  0
    4.3770   34.8940   31.2670 C   0  0  0  0  0  0  0  0  0  0  0  0
    5.1170   33.7560   30.9880 C   0  0  0  0  0  0  0  0  0  0  0  0
    6.3670   33.8610   30.4110 C   0  0  0  0  0  0  0  0  0  0  0  0
    6.8790   35.1070   30.1100 C   0  0  0  0  0  0  0  0  0  0  0  0
    6.1450   36.2500   30.3860 C   0  0  0  0  0  0  0  0  0  0  0  0
  1  2  1  0  0  0  0
  2  3  1  0  0  0  0
  3  4  2  0  0  0  0
  4  5  1  0  0  0  0
  5  6  1  0  0  0  0
  6  7  1  0  0  0  0
  7  8  1  0  0  0  0
  8  9  1  0  0  0  0
  9 10  1  0  0  0  0
 10 11  1  0  0  0  0
 11 12  1  0  0  0  0
 12 13  1  0  0  0  0
 13 14  1  0  0  0  0
 14 15  2  0  0  0  0
 15 16  1  0  0  0  0
 16 17  1  0  0  0  0
 17 18  1  0  0  0  0
 18 19  1  0  0  0  0
 18 20  2  0  0  0  0
 16 21  2  0  0  0  0
 20 21  1  0  0  0  0
 21 22  1  0  0  0  0
 14 23  1  0  0  0  0
 22 23  2  0  0  0  0
 13 24  2  0  0  0  0
 13 25  2  0  0  0  0
 12 26  1  0  0  0  0
  9 27  1  0  0  0  0
 26 27  1  0  0  0  0
  7 28  1  0  0  0  0
  9 28  1  0  0  0  0
  4 29  1  0  0  0  0
 29 30  2  0  0  0  0
  2 31  2  0  0  0  0
 30 31  1  0  0  0  0
 31 32  1  0  0  0  0
 32 33  2  0  0  0  0
 33 34  1  0  0  0  0
 34 35  2  0  0  0  0
 35 36  1  0  0  0  0
 32 37  1  0  0  0  0
 36 37  2  0  0  0  0
 38 39  1  0  0  0  0
 39 40  1  0  0  0  0
 40 41  2  0  0  0  0
 41 42  1  0  0  0  0
 42 43  1  0  0  0  0
 43 44  1  0  0  0  0
 44 45  1  0  0  0  0
 45 46  1  0  0  0  0
 46 47  1  0  0  0  0
 47 48  1  0  0  0  0
 48 49  1  0  0  0  0
 49 50  1  0  0  0  0
 50 51  1  0  0  0  0
 51 52  2  0  0  0  0
 52 53  1  0  0  0  0
 53 54  1  0  0  0  0
 54 55  1  0  0  0  0
 55 56  1  0  0  0  0
 55 57  2  0  0  0  0
 53 58  2  0  0  0  0
 57 58  1  0  0  0  0
 58 59  1  0  0  0  0
 51 60  1  0  0  0  0
 59 60  2  0  0  0  0
 50 61  2  0  0  0  0
 50 62  2  0  0  0  0
 49 63  1  0  0  0  0
 46 64  1  0  0  0  0
 63 64  1  0  0  0  0
 44 65  1  0  0  0  0
 46 65  1  0  0  0  0
 41 66  1  0  0  0  0
 66 67  2  0  0  0  0
 39 68  2  0  0  0  0
 67 68  1  0  0  0  0
 68 69  1  0  0  0  0
 69 70  2  0  0  0  0
 70 71  1  0  0  0  0
 71 72  2  0  0  0  0
 72 73  1  0  0  0  0
 69 74  1  0  0  0  0
 73 74  2  0  0  0  0
M  END
$$$$
