8E24
  PyMOL3.1          3D                             0

 33 35  0  0  0  0  0  0  0  0999 V2000
   -7.8229    5.9136   41.6519 O   0  0  0  0  0  0  0  0  0  0  0  0
   -7.0131    5.2163   41.0500 C   0  0  0  0  0  0  0  0  0  0  0  0
   -5.8912    4.7485   41.7769 N   0  0  0  0  0  0  0  0  0  0  0  0
   -5.6608    5.0674   43.2031 C   0  0  0  0  0  0  0  0  0  0  0  0
   -4.3250    5.3482   43.7384 C   0  0  0  0  0  0  0  0  0  0  0  0
   -3.2547    5.5703   44.1635 C   0  0  0  0  0  0  0  0  0  0  0  0
   -1.9517    5.8386   44.6805 C   0  0  0  0  0  0  0  0  0  0  0  0
   -1.5071    5.2695   45.8848 C   0  0  0  0  0  0  0  0  0  0  0  0
   -0.2076    5.5802   46.3334 C   0  0  0  0  0  0  0  0  0  0  0  0
    0.5648    6.4404   45.5486 C   0  0  0  0  0  0  0  0  0  0  0  0
    0.0533    6.9560   44.3790 N   0  0  0  0  0  0  0  0  0  0  0  0
   -1.1182    6.6810   43.9657 N   0  0  0  0  0  0  0  0  0  0  0  0
   -4.8369    3.8888   41.1412 C   0  0  0  0  0  0  0  0  0  0  0  0
   -4.9422    2.4845   41.1581 C   0  0  0  0  0  0  0  0  0  0  0  0
   -3.9807    1.6572   40.5702 C   0  0  0  0  0  0  0  0  0  0  0  0
   -2.8635    2.1864   39.9282 C   0  0  0  0  0  0  0  0  0  0  0  0
   -2.7374    3.5694   39.8923 C   0  0  0  0  0  0  0  0  0  0  0  0
   -3.7029    4.3973   40.4824 C   0  0  0  0  0  0  0  0  0  0  0  0
   -7.2934    4.9066   39.5505 C   0  0  0  0  0  0  0  0  0  0  0  0
   -8.6980    4.9727   38.9322 C   0  0  0  0  0  0  0  0  0  0  0  0
   -9.1367    6.1032   38.2922 C   0  0  0  0  0  0  0  0  0  0  0  0
  -10.3999    6.2182   37.7082 C   0  0  0  0  0  0  0  0  0  0  0  0
  -11.2993    5.1546   37.7582 C   0  0  0  0  0  0  0  0  0  0  0  0
  -12.6808    5.3117   37.1100 C   0  0  0  0  0  0  0  0  0  0  0  0
  -10.8961    3.9650   38.4082 C   0  0  0  0  0  0  0  0  0  0  0  0
   -9.6104    3.8806   38.9873 C   0  0  0  0  0  0  0  0  0  0  0  0
   -9.2246    2.5525   39.6838 C   0  0  0  0  0  0  0  0  0  0  0  0
  -12.9205    6.4667   36.5045 F   0  0  0  0  0  0  0  0  0  0  0  0
  -13.7310    5.1764   37.9822 F   0  0  0  0  0  0  0  0  0  0  0  0
  -12.9764    4.3739   36.1732 F   0  0  0  0  0  0  0  0  0  0  0  0
   -8.1494    1.9327   39.1450 F   0  0  0  0  0  0  0  0  0  0  0  0
   -8.8777    2.7445   40.9761 F   0  0  0  0  0  0  0  0  0  0  0  0
  -10.1562    1.5879   39.7352 F   0  0  0  0  0  0  0  0  0  0  0  0
  1  2  2  0  0  0  0
  2  3  1  0  0  0  0
  3  4  1  0  0  0  0
  4  5  1  0  0  0  0
  5  6  3  0  0  0  0
  6  7  1  0  0  0  0
  7  8  1  0  0  0  0
  8  9  2  0  0  0  0
  9 10  1  0  0  0  0
 10 11  2  0  0  0  0
  7 12  2  0  0  0  0
 11 12  1  0  0  0  0
  3 13  1  0  0  0  0
 13 14  1  0  0  0  0
 14 15  2  0  0  0  0
 15 16  1  0  0  0  0
 16 17  2  0  0  0  0
 13 18  2  0  0  0  0
 17 18  1  0  0  0  0
  2 19  1  0  0  0  0
 19 20  1  0  0  0  0
 20 21  2  0  0  0  0
 21 22  1  0  0  0  0
 22 23  2  0  0  0  0
 23 24  1  0  0  0  0
 23 25  1  0  0  0  0
 20 26  1  0  0  0  0
 25 26  2  0  0  0  0
 26 27  1  0  0  0  0
 24 28  1  0  0  0  0
 24 29  1  0  0  0  0
 24 30  1  0  0  0  0
 27 31  1  0  0  0  0
 27 32  1  0  0  0  0
 27 33  1  0  0  0  0
M  END
$$$$
