8BHO
  PyMOL3.1          3D                             0

220235  0  0  0  0  0  0  0  0999 V2000
  186.3965  185.4829  194.5393 N   0  0  0  0  0  0  0  0  0  0  0  0
  184.2066  191.3292  194.0051 C   0  0  0  0  0  0  0  0  0  0  0  0
  184.7316  189.3643  195.2580 O   0  0  0  0  0  0  0  0  0  0  0  0
  184.0090  190.6316  195.2964 C   0  0  0  0  0  0  0  0  0  0  0  0
  184.3810  186.0473  195.3043 N   0  0  0  0  0  0  0  0  0  0  0  0
  183.1694  188.5225  193.8881 O   0  0  0  0  0  0  0  0  0  0  0  0
  184.1792  188.3887  194.5336 C   0  0  0  0  0  0  0  0  0  0  0  0
  187.7319  187.0594  192.1498 N   0  0  0  0  0  0  0  0  0  0  0  0
  187.7629  185.2568  190.8193 O   0  0  0  0  0  0  0  0  0  0  0  0
  184.9401  187.1204  194.6259 C   0  0  0  0  0  0  0  0  0  0  0  0
  191.0521  182.5532  193.6965 O   0  0  0  0  0  0  0  0  0  0  0  0
  186.1898  186.7951  194.1374 C   0  0  0  0  0  0  0  0  0  0  0  0
  185.2800  185.0949  195.2281 C   0  0  0  0  0  0  0  0  0  0  0  0
  187.5806  184.7317  194.2792 C   0  0  0  0  0  0  0  0  0  0  0  0
  188.0330  183.8607  195.2636 C   0  0  0  0  0  0  0  0  0  0  0  0
  189.1936  183.1337  195.0657 C   0  0  0  0  0  0  0  0  0  0  0  0
  189.9040  183.2742  193.8848 C   0  0  0  0  0  0  0  0  0  0  0  0
  189.4652  184.1362  192.8914 C   0  0  0  0  0  0  0  0  0  0  0  0
  188.2955  184.8724  193.0787 C   0  0  0  0  0  0  0  0  0  0  0  0
  187.9056  185.7429  191.9256 C   0  0  0  0  0  0  0  0  0  0  0  0
  187.1430  187.6432  193.3556 C   0  0  0  0  0  0  0  0  0  0  0  0
  186.5687  188.9623  192.8339 C   0  0  0  0  0  0  0  0  0  0  0  0
  187.5825  189.3864  191.7823 C   0  0  0  0  0  0  0  0  0  0  0  0
  188.0938  188.0867  191.1599 C   0  0  0  0  0  0  0  0  0  0  0  0
  190.9172  181.1603  193.4288 C   0  0  0  0  0  0  0  0  0  0  0  0
  187.9682  187.8398  194.0380 H   0  0  0  0  0  0  0  0  0  0  0  0
  183.8631  190.7461  193.1522 H   0  0  0  0  0  0  0  0  0  0  0  0
  183.6593  192.2704  193.9921 H   0  0  0  0  0  0  0  0  0  0  0  0
  185.2508  191.5681  193.8116 H   0  0  0  0  0  0  0  0  0  0  0  0
  182.9540  190.4483  195.4911 H   0  0  0  0  0  0  0  0  0  0  0  0
  184.3856  191.2140  196.1358 H   0  0  0  0  0  0  0  0  0  0  0  0
  185.1580  184.1038  195.6619 H   0  0  0  0  0  0  0  0  0  0  0  0
  187.4850  183.7391  196.1965 H   0  0  0  0  0  0  0  0  0  0  0  0
  189.5532  182.4509  195.8340 H   0  0  0  0  0  0  0  0  0  0  0  0
  190.0217  184.2470  191.9622 H   0  0  0  0  0  0  0  0  0  0  0  0
  186.4695  189.7036  193.6239 H   0  0  0  0  0  0  0  0  0  0  0  0
  185.5700  188.8477  192.4175 H   0  0  0  0  0  0  0  0  0  0  0  0
  187.1548  190.0538  191.0361 H   0  0  0  0  0  0  0  0  0  0  0  0
  188.3929  189.9604  192.2283 H   0  0  0  0  0  0  0  0  0  0  0  0
  189.1673  188.0886  190.9800 H   0  0  0  0  0  0  0  0  0  0  0  0
  187.6328  187.8838  190.1944 H   0  0  0  0  0  0  0  0  0  0  0  0
  191.8033  180.5782  193.6761 H   0  0  0  0  0  0  0  0  0  0  0  0
  190.7443  181.1294  192.3543 H   0  0  0  0  0  0  0  0  0  0  0  0
  190.0546  180.7347  193.9378 H   0  0  0  0  0  0  0  0  0  0  0  0
  190.3080  155.9233  194.5350 N   0  0  0  0  0  0  0  0  0  0  0  0
  195.1984  159.8040  194.0017 C   0  0  0  0  0  0  0  0  0  0  0  0
  193.4901  158.7000  195.2543 O   0  0  0  0  0  0  0  0  0  0  0  0
  194.4741  159.7770  195.2931 C   0  0  0  0  0  0  0  0  0  0  0  0
  190.2258  158.0143  195.3011 N   0  0  0  0  0  0  0  0  0  0  0  0
  192.2088  159.9285  193.8853 O   0  0  0  0  0  0  0  0  0  0  0  0
  192.3918  158.9263  194.5303 C   0  0  0  0  0  0  0  0  0  0  0  0
  192.2180  155.1381  192.1447 N   0  0  0  0  0  0  0  0  0  0  0  0
  190.5119  154.5553  190.8143 O   0  0  0  0  0  0  0  0  0  0  0  0
  191.4188  157.8123  194.6223 C   0  0  0  0  0  0  0  0  0  0  0  0
  188.9504  150.5931  193.6898 O   0  0  0  0  0  0  0  0  0  0  0  0
  191.4931  156.5234  194.1331 C   0  0  0  0  0  0  0  0  0  0  0  0
  189.5958  156.8662  195.2244 C   0  0  0  0  0  0  0  0  0  0  0  0
  189.9570  154.5657  194.2743 C   0  0  0  0  0  0  0  0  0  0  0  0
  189.2672  153.8672  195.2585 C   0  0  0  0  0  0  0  0  0  0  0  0
  188.9320  152.5394  195.0600 C   0  0  0  0  0  0  0  0  0  0  0  0
  189.2838  151.9071  193.8788 C   0  0  0  0  0  0  0  0  0  0  0  0
  189.9690  152.5900  192.8855 C   0  0  0  0  0  0  0  0  0  0  0  0
  190.3102  153.9292  193.0734 C   0  0  0  0  0  0  0  0  0  0  0  0
  191.0186  154.5683  191.9205 C   0  0  0  0  0  0  0  0  0  0  0  0
  192.5929  155.8773  193.3508 C   0  0  0  0  0  0  0  0  0  0  0  0
  193.6716  156.8294  192.8293 C   0  0  0  0  0  0  0  0  0  0  0  0
  194.3865  155.9955  191.7772 C   0  0  0  0  0  0  0  0  0  0  0  0
  193.3066  155.1099  191.1546 C   0  0  0  0  0  0  0  0  0  0  0  0
  187.5834  150.2936  193.4223 C   0  0  0  0  0  0  0  0  0  0  0  0
  193.0337  155.1521  194.0327 H   0  0  0  0  0  0  0  0  0  0  0  0
  194.5378  159.9521  193.1490 H   0  0  0  0  0  0  0  0  0  0  0  0
  195.9259  160.6140  193.9890 H   0  0  0  0  0  0  0  0  0  0  0  0
  195.7465  158.8838  193.8077 H   0  0  0  0  0  0  0  0  0  0  0  0
  193.9755  160.7246  195.4884 H   0  0  0  0  0  0  0  0  0  0  0  0
  195.1442  159.5972  196.1323 H   0  0  0  0  0  0  0  0  0  0  0  0
  188.6152  156.6775  195.6583 H   0  0  0  0  0  0  0  0  0  0  0  0
  188.9834  154.3508  196.1917 H   0  0  0  0  0  0  0  0  0  0  0  0
  188.3929  151.9870  195.8282 H   0  0  0  0  0  0  0  0  0  0  0  0
  190.2453  152.0950  191.9561 H   0  0  0  0  0  0  0  0  0  0  0  0
  194.3467  157.1512  193.6193 H   0  0  0  0  0  0  0  0  0  0  0  0
  193.2555  157.7448  192.4135 H   0  0  0  0  0  0  0  0  0  0  0  0
  194.8900  156.6079  191.0312 H   0  0  0  0  0  0  0  0  0  0  0  0
  195.1818  155.4005  192.2228 H   0  0  0  0  0  0  0  0  0  0  0  0
  193.6383  154.0889  190.9742 H   0  0  0  0  0  0  0  0  0  0  0  0
  192.9718  155.4866  190.1894 H   0  0  0  0  0  0  0  0  0  0  0  0
  187.3018  149.2713  193.6692 H   0  0  0  0  0  0  0  0  0  0  0  0
  187.5007  150.4491  192.3479 H   0  0  0  0  0  0  0  0  0  0  0  0
  186.9135  150.9834  193.9318 H   0  0  0  0  0  0  0  0  0  0  0  0
  163.4135  143.0618  194.5423 N   0  0  0  0  0  0  0  0  0  0  0  0
  168.6173  139.6126  194.0099 C   0  0  0  0  0  0  0  0  0  0  0  0
  167.0386  140.8954  195.2622 O   0  0  0  0  0  0  0  0  0  0  0  0
  168.3673  140.2931  195.3012 C   0  0  0  0  0  0  0  0  0  0  0  0
  165.3763  143.7872  195.3085 N   0  0  0  0  0  0  0  0  0  0  0  0
  167.8105  142.4940  193.8932 O   0  0  0  0  0  0  0  0  0  0  0  0
  166.9140  142.0097  194.5381 C   0  0  0  0  0  0  0  0  0  0  0  0
  163.2583  141.0023  192.1521 N   0  0  0  0  0  0  0  0  0  0  0  0
  162.1763  142.4441  190.8214 O   0  0  0  0  0  0  0  0  0  0  0  0
  165.5536  142.5903  194.6298 C   0  0  0  0  0  0  0  0  0  0  0  0
  157.9250  142.7029  193.6964 O   0  0  0  0  0  0  0  0  0  0  0  0
  164.3510  142.1206  194.1406 C   0  0  0  0  0  0  0  0  0  0  0  0
  164.0896  144.0309  195.2316 C   0  0  0  0  0  0  0  0  0  0  0  0
  162.0140  142.9754  194.2814 C   0  0  0  0  0  0  0  0  0  0  0  0
  161.1361  143.4151  195.2654 C   0  0  0  0  0  0  0  0  0  0  0  0
  159.7699  143.3229  195.0668 C   0  0  0  0  0  0  0  0  0  0  0  0
  159.2776  142.7926  193.8856 C   0  0  0  0  0  0  0  0  0  0  0  0
  160.1392  142.3523  192.8924 C   0  0  0  0  0  0  0  0  0  0  0  0
  161.5182  142.4424  193.0805 C   0  0  0  0  0  0  0  0  0  0  0  0
  162.3453  141.9665  191.9277 C   0  0  0  0  0  0  0  0  0  0  0  0
  164.0771  140.8747  193.3583 C   0  0  0  0  0  0  0  0  0  0  0  0
  165.3164  140.1437  192.8371 C   0  0  0  0  0  0  0  0  0  0  0  0
  164.7448  139.2056  191.7850 C   0  0  0  0  0  0  0  0  0  0  0  0
  163.5685  139.9583  191.1621 C   0  0  0  0  0  0  0  0  0  0  0  0
  157.2171  143.9101  193.4287 C   0  0  0  0  0  0  0  0  0  0  0  0
  163.5239  140.2312  194.0403 H   0  0  0  0  0  0  0  0  0  0  0  0
  168.5538  140.2865  193.1571 H   0  0  0  0  0  0  0  0  0  0  0  0
  169.6127  139.1715  193.9973 H   0  0  0  0  0  0  0  0  0  0  0  0
  167.9120  138.8065  193.8159 H   0  0  0  0  0  0  0  0  0  0  0  0
  169.1141  141.0605  195.4965 H   0  0  0  0  0  0  0  0  0  0  0  0
  168.4037  139.6003  196.1405 H   0  0  0  0  0  0  0  0  0  0  0  0
  163.6066  144.9050  195.6654 H   0  0  0  0  0  0  0  0  0  0  0  0
  161.5080  143.8348  196.1987 H   0  0  0  0  0  0  0  0  0  0  0  0
  159.0777  143.6646  195.8348 H   0  0  0  0  0  0  0  0  0  0  0  0
  159.7541  141.9362  191.9630 H   0  0  0  0  0  0  0  0  0  0  0  0
  165.8312  139.6014  193.6272 H   0  0  0  0  0  0  0  0  0  0  0  0
  166.0581  140.8226  192.4213 H   0  0  0  0  0  0  0  0  0  0  0  0
  165.4831  138.9164  191.0391 H   0  0  0  0  0  0  0  0  0  0  0  0
  164.4252  138.2652  192.2306 H   0  0  0  0  0  0  0  0  0  0  0  0
  162.7004  139.3269  190.9816 H   0  0  0  0  0  0  0  0  0  0  0  0
  163.8233  140.3933  190.1969 H   0  0  0  0  0  0  0  0  0  0  0  0
  156.1579  143.8614  193.6755 H   0  0  0  0  0  0  0  0  0  0  0  0
  157.3395  144.0367  192.3543 H   0  0  0  0  0  0  0  0  0  0  0  0
  157.6656  144.7606  193.9382 H   0  0  0  0  0  0  0  0  0  0  0  0
  142.8445  164.6657  194.5345 N   0  0  0  0  0  0  0  0  0  0  0  0
  141.1681  158.6519  194.0013 C   0  0  0  0  0  0  0  0  0  0  0  0
  141.9015  160.5491  195.2539 O   0  0  0  0  0  0  0  0  0  0  0  0
  141.7383  159.0995  195.2927 C   0  0  0  0  0  0  0  0  0  0  0  0
  144.1398  163.0221  195.3006 N   0  0  0  0  0  0  0  0  0  0  0  0
  143.6602  160.3080  193.8849 O   0  0  0  0  0  0  0  0  0  0  0  0
  142.9231  161.0114  194.5299 C   0  0  0  0  0  0  0  0  0  0  0  0
  140.8376  164.1786  192.1443 N   0  0  0  0  0  0  0  0  0  0  0  0
  141.8754  165.6527  190.8138 O   0  0  0  0  0  0  0  0  0  0  0  0
  143.0558  162.4845  194.6218 C   0  0  0  0  0  0  0  0  0  0  0  0
  140.8105  169.7762  193.6894 O   0  0  0  0  0  0  0  0  0  0  0  0
  142.2382  163.4838  194.1326 C   0  0  0  0  0  0  0  0  0  0  0  0
  143.9748  164.3213  195.2239 C   0  0  0  0  0  0  0  0  0  0  0  0
  142.3306  165.9704  194.2738 C   0  0  0  0  0  0  0  0  0  0  0  0
  142.4782  166.9410  195.2580 C   0  0  0  0  0  0  0  0  0  0  0  0
  141.9692  168.2123  195.0596 C   0  0  0  0  0  0  0  0  0  0  0  0
  141.3129  168.5171  193.8783 C   0  0  0  0  0  0  0  0  0  0  0  0
  141.1598  167.5619  192.8851 C   0  0  0  0  0  0  0  0  0  0  0  0
  141.6708  166.2778  193.0730 C   0  0  0  0  0  0  0  0  0  0  0  0
  141.4732  165.3445  191.9200 C   0  0  0  0  0  0  0  0  0  0  0  0
  140.9686  163.3602  193.3504 C   0  0  0  0  0  0  0  0  0  0  0  0
  140.6554  161.9559  192.8289 C   0  0  0  0  0  0  0  0  0  0  0  0
  139.5868  162.2105  191.7768 C   0  0  0  0  0  0  0  0  0  0  0  0
  139.9401  163.5617  191.1541 C   0  0  0  0  0  0  0  0  0  0  0  0
  141.7405  170.8219  193.4218 C   0  0  0  0  0  0  0  0  0  0  0  0
  140.1859  163.6879  194.0323 H   0  0  0  0  0  0  0  0  0  0  0  0
  141.7896  158.9203  193.1485 H   0  0  0  0  0  0  0  0  0  0  0  0
  141.0555  157.5690  193.9885 H   0  0  0  0  0  0  0  0  0  0  0  0
  140.1838  159.0743  193.8073 H   0  0  0  0  0  0  0  0  0  0  0  0
  142.6986  158.6257  195.4879 H   0  0  0  0  0  0  0  0  0  0  0  0
  141.0905  158.8511  196.1319 H   0  0  0  0  0  0  0  0  0  0  0  0
  144.6573  165.0503  195.6578 H   0  0  0  0  0  0  0  0  0  0  0  0
  142.9921  166.7165  196.1913 H   0  0  0  0  0  0  0  0  0  0  0  0
  142.0807  168.9760  195.8277 H   0  0  0  0  0  0  0  0  0  0  0  0
  140.6453  167.8001  191.9556 H   0  0  0  0  0  0  0  0  0  0  0  0
  140.2982  161.2989  193.6189 H   0  0  0  0  0  0  0  0  0  0  0  0
  141.5299  161.4598  192.4131 H   0  0  0  0  0  0  0  0  0  0  0  0
  139.5393  161.4191  191.0308 H   0  0  0  0  0  0  0  0  0  0  0  0
  138.5937  162.2246  192.2224 H   0  0  0  0  0  0  0  0  0  0  0  0
  139.0718  164.1928  190.9737 H   0  0  0  0  0  0  0  0  0  0  0  0
  140.4325  163.4536  190.1889 H   0  0  0  0  0  0  0  0  0  0  0  0
  141.3676  171.8145  193.6687 H   0  0  0  0  0  0  0  0  0  0  0  0
  141.8988  170.7447  192.3474 H   0  0  0  0  0  0  0  0  0  0  0  0
  142.6879  170.6574  193.9313 H   0  0  0  0  0  0  0  0  0  0  0  0
  157.0435  190.8867  194.5320 N   0  0  0  0  0  0  0  0  0  0  0  0
  150.8062  190.6224  193.9967 C   0  0  0  0  0  0  0  0  0  0  0  0
  152.8367  190.5116  195.2501 O   0  0  0  0  0  0  0  0  0  0  0  0
  151.4076  190.2188  195.2884 C   0  0  0  0  0  0  0  0  0  0  0  0
  155.8804  189.1471  195.2981 N   0  0  0  0  0  0  0  0  0  0  0  0
  153.1514  188.7640  193.8816 O   0  0  0  0  0  0  0  0  0  0  0  0
  153.5923  189.6826  194.5265 C   0  0  0  0  0  0  0  0  0  0  0  0
  155.9608  192.6442  192.1409 N   0  0  0  0  0  0  0  0  0  0  0  0
  157.6840  192.1123  190.8112 O   0  0  0  0  0  0  0  0  0  0  0  0
  155.0343  190.0117  194.6189 C   0  0  0  0  0  0  0  0  0  0  0  0
  161.2756  194.4002  193.6873 O   0  0  0  0  0  0  0  0  0  0  0  0
  155.7322  191.0979  194.1296 C   0  0  0  0  0  0  0  0  0  0  0  0
  157.0650  189.7054  195.2217 C   0  0  0  0  0  0  0  0  0  0  0  0
  158.1257  191.7785  194.2714 C   0  0  0  0  0  0  0  0  0  0  0  0
  159.0940  191.9383  195.2559 C   0  0  0  0  0  0  0  0  0  0  0  0
  160.1458  192.8153  195.0576 C   0  0  0  0  0  0  0  0  0  0  0  0
  160.2333  193.5333  193.8762 C   0  0  0  0  0  0  0  0  0  0  0  0
  159.2779  193.3834  192.8826 C   0  0  0  0  0  0  0  0  0  0  0  0
  158.2144  192.5007  193.0704 C   0  0  0  0  0  0  0  0  0  0  0  0
  157.2661  192.3999  191.9172 C   0  0  0  0  0  0  0  0  0  0  0  0
  155.2225  192.2669  193.3468 C   0  0  0  0  0  0  0  0  0  0  0  0
  153.7904  192.1307  192.8249 C   0  0  0  0  0  0  0  0  0  0  0  0
  153.7027  193.2254  191.7725 C   0  0  0  0  0  0  0  0  0  0  0  0
  155.0971  193.3068  191.1503 C   0  0  0  0  0  0  0  0  0  0  0  0
  162.5576  193.8387  193.4204 C   0  0  0  0  0  0  0  0  0  0  0  0
  155.2921  193.1129  194.0286 H   0  0  0  0  0  0  0  0  0  0  0  0
  151.2538  190.1140  193.1443 H   0  0  0  0  0  0  0  0  0  0  0  0
  149.7415  190.3949  193.9837 H   0  0  0  0  0  0  0  0  0  0  0  0
  150.9038  191.6890  193.8024 H   0  0  0  0  0  0  0  0  0  0  0  0
  151.2537  189.1592  195.4839 H   0  0  0  0  0  0  0  0  0  0  0  0
  150.9709  190.7584  196.1273 H   0  0  0  0  0  0  0  0  0  0  0  0
  157.9691  189.2817  195.6560 H   0  0  0  0  0  0  0  0  0  0  0  0
  159.0389  191.3805  196.1893 H   0  0  0  0  0  0  0  0  0  0  0  0
  160.9063  192.9454  195.8259 H   0  0  0  0  0  0  0  0  0  0  0  0
  159.3457  193.9461  191.9531 H   0  0  0  0  0  0  0  0  0  0  0  0
  153.0549  192.2676  193.6147 H   0  0  0  0  0  0  0  0  0  0  0  0
  153.5890  191.1456  192.4093 H   0  0  0  0  0  0  0  0  0  0  0  0
  152.9356  193.0258  191.0263 H   0  0  0  0  0  0  0  0  0  0  0  0
  153.4090  194.1744  192.2178 H   0  0  0  0  0  0  0  0  0  0  0  0
  155.4291  194.3276  190.9697 H   0  0  0  0  0  0  0  0  0  0  0  0
  155.1468  192.8049  190.1853 H   0  0  0  0  0  0  0  0  0  0  0  0
  163.3862  194.5002  193.6673 H   0  0  0  0  0  0  0  0  0  0  0  0
  162.5334  193.6640  192.3460 H   0  0  0  0  0  0  0  0  0  0  0  0
  162.6938  192.8870  193.9302 H   0  0  0  0  0  0  0  0  0  0  0  0
  2  4  1  0  0  0  0
  3  4  1  0  0  0  0
  3  7  1  0  0  0  0
  6  7  2  0  0  0  0
  5 10  1  0  0  0  0
  7 10  1  0  0  0  0
  1 12  1  0  0  0  0
 10 12  2  0  0  0  0
  1 13  1  0  0  0  0
  5 13  2  0  0  0  0
  1 14  1  0  0  0  0
 14 15  2  0  0  0  0
 15 16  1  0  0  0  0
 11 17  1  0  0  0  0
 16 17  2  0  0  0  0
 17 18  1  0  0  0  0
 14 19  1  0  0  0  0
 18 19  2  0  0  0  0
  8 20  1  0  0  0  0
  9 20  2  0  0  0  0
 19 20  1  0  0  0  0
  8 21  1  0  0  0  0
 12 21  1  0  0  0  0
 21 22  1  0  0  0  0
 22 23  1  0  0  0  0
  8 24  1  0  0  0  0
 23 24  1  0  0  0  0
 11 25  1  0  0  0  0
 21 26  1  0  0  0  0
  2 27  1  0  0  0  0
  2 28  1  0  0  0  0
  2 29  1  0  0  0  0
  4 30  1  0  0  0  0
  4 31  1  0  0  0  0
 13 32  1  0  0  0  0
 15 33  1  0  0  0  0
 16 34  1  0  0  0  0
 18 35  1  0  0  0  0
 22 36  1  0  0  0  0
 22 37  1  0  0  0  0
 23 38  1  0  0  0  0
 23 39  1  0  0  0  0
 24 40  1  0  0  0  0
 24 41  1  0  0  0  0
 25 42  1  0  0  0  0
 25 43  1  0  0  0  0
 25 44  1  0  0  0  0
 46 48  1  0  0  0  0
 47 48  1  0  0  0  0
 47 51  1  0  0  0  0
 50 51  2  0  0  0  0
 49 54  1  0  0  0  0
 51 54  1  0  0  0  0
 45 56  1  0  0  0  0
 54 56  2  0  0  0  0
 45 57  1  0  0  0  0
 49 57  2  0  0  0  0
 45 58  1  0  0  0  0
 58 59  2  0  0  0  0
 59 60  1  0  0  0  0
 55 61  1  0  0  0  0
 60 61  2  0  0  0  0
 61 62  1  0  0  0  0
 58 63  1  0  0  0  0
 62 63  2  0  0  0  0
 52 64  1  0  0  0  0
 53 64  2  0  0  0  0
 63 64  1  0  0  0  0
 52 65  1  0  0  0  0
 56 65  1  0  0  0  0
 65 66  1  0  0  0  0
 66 67  1  0  0  0  0
 52 68  1  0  0  0  0
 67 68  1  0  0  0  0
 55 69  1  0  0  0  0
 65 70  1  0  0  0  0
 46 71  1  0  0  0  0
 46 72  1  0  0  0  0
 46 73  1  0  0  0  0
 48 74  1  0  0  0  0
 48 75  1  0  0  0  0
 57 76  1  0  0  0  0
 59 77  1  0  0  0  0
 60 78  1  0  0  0  0
 62 79  1  0  0  0  0
 66 80  1  0  0  0  0
 66 81  1  0  0  0  0
 67 82  1  0  0  0  0
 67 83  1  0  0  0  0
 68 84  1  0  0  0  0
 68 85  1  0  0  0  0
 69 86  1  0  0  0  0
 69 87  1  0  0  0  0
 69 88  1  0  0  0  0
 90 92  1  0  0  0  0
 91 92  1  0  0  0  0
 91 95  1  0  0  0  0
 94 95  2  0  0  0  0
 93 98  1  0  0  0  0
 95 98  1  0  0  0  0
 89100  1  0  0  0  0
 98100  2  0  0  0  0
 89101  1  0  0  0  0
 93101  2  0  0  0  0
 89102  1  0  0  0  0
102103  2  0  0  0  0
103104  1  0  0  0  0
 99105  1  0  0  0  0
104105  2  0  0  0  0
105106  1  0  0  0  0
102107  1  0  0  0  0
106107  2  0  0  0  0
 96108  1  0  0  0  0
 97108  2  0  0  0  0
107108  1  0  0  0  0
 96109  1  0  0  0  0
100109  1  0  0  0  0
109110  1  0  0  0  0
110111  1  0  0  0  0
 96112  1  0  0  0  0
111112  1  0  0  0  0
 99113  1  0  0  0  0
109114  1  0  0  0  0
 90115  1  0  0  0  0
 90116  1  0  0  0  0
 90117  1  0  0  0  0
 92118  1  0  0  0  0
 92119  1  0  0  0  0
101120  1  0  0  0  0
103121  1  0  0  0  0
104122  1  0  0  0  0
106123  1  0  0  0  0
110124  1  0  0  0  0
110125  1  0  0  0  0
111126  1  0  0  0  0
111127  1  0  0  0  0
112128  1  0  0  0  0
112129  1  0  0  0  0
113130  1  0  0  0  0
113131  1  0  0  0  0
113132  1  0  0  0  0
134136  1  0  0  0  0
135136  1  0  0  0  0
135139  1  0  0  0  0
138139  2  0  0  0  0
137142  1  0  0  0  0
139142  1  0  0  0  0
133144  1  0  0  0  0
142144  2  0  0  0  0
133145  1  0  0  0  0
137145  2  0  0  0  0
133146  1  0  0  0  0
146147  2  0  0  0  0
147148  1  0  0  0  0
143149  1  0  0  0  0
148149  2  0  0  0  0
149150  1  0  0  0  0
146151  1  0  0  0  0
150151  2  0  0  0  0
140152  1  0  0  0  0
141152  2  0  0  0  0
151152  1  0  0  0  0
140153  1  0  0  0  0
144153  1  0  0  0  0
153154  1  0  0  0  0
154155  1  0  0  0  0
140156  1  0  0  0  0
155156  1  0  0  0  0
143157  1  0  0  0  0
153158  1  0  0  0  0
134159  1  0  0  0  0
134160  1  0  0  0  0
134161  1  0  0  0  0
136162  1  0  0  0  0
136163  1  0  0  0  0
145164  1  0  0  0  0
147165  1  0  0  0  0
148166  1  0  0  0  0
150167  1  0  0  0  0
154168  1  0  0  0  0
154169  1  0  0  0  0
155170  1  0  0  0  0
155171  1  0  0  0  0
156172  1  0  0  0  0
156173  1  0  0  0  0
157174  1  0  0  0  0
157175  1  0  0  0  0
157176  1  0  0  0  0
178180  1  0  0  0  0
179180  1  0  0  0  0
179183  1  0  0  0  0
182183  2  0  0  0  0
181186  1  0  0  0  0
183186  1  0  0  0  0
177188  1  0  0  0  0
186188  2  0  0  0  0
177189  1  0  0  0  0
181189  2  0  0  0  0
177190  1  0  0  0  0
190191  2  0  0  0  0
191192  1  0  0  0  0
187193  1  0  0  0  0
192193  2  0  0  0  0
193194  1  0  0  0  0
190195  1  0  0  0  0
194195  2  0  0  0  0
184196  1  0  0  0  0
185196  2  0  0  0  0
195196  1  0  0  0  0
184197  1  0  0  0  0
188197  1  0  0  0  0
197198  1  0  0  0  0
198199  1  0  0  0  0
184200  1  0  0  0  0
199200  1  0  0  0  0
187201  1  0  0  0  0
197202  1  0  0  0  0
178203  1  0  0  0  0
178204  1  0  0  0  0
178205  1  0  0  0  0
180206  1  0  0  0  0
180207  1  0  0  0  0
189208  1  0  0  0  0
191209  1  0  0  0  0
192210  1  0  0  0  0
194211  1  0  0  0  0
198212  1  0  0  0  0
198213  1  0  0  0  0
199214  1  0  0  0  0
199215  1  0  0  0  0
200216  1  0  0  0  0
200217  1  0  0  0  0
201218  1  0  0  0  0
201219  1  0  0  0  0
201220  1  0  0  0  0
M  END
$$$$
