8YUT
  PyMOL3.1          3D                             0

 10 10  0  0  0  0  0  0  0  0999 V2000
   96.1570  118.8840  111.0800 S   0  0  0  0  0  0  0  0  0  0  0  0
   97.2750  120.9960  111.2100 N   0  0  0  0  0  0  0  0  0  0  0  0
   92.0550  118.4940  113.0730 N   0  0  0  0  0  0  0  0  0  0  0  0
   98.1160  119.4420  109.3660 N   0  0  0  0  0  0  0  0  0  0  0  0
   94.3800  119.1430  113.1080 C   0  0  0  0  0  0  0  0  0  0  0  0
   95.5170  119.6410  112.2180 C   0  0  0  0  0  0  0  0  0  0  0  0
   93.2410  118.6050  112.2500 C   0  0  0  0  0  0  0  0  0  0  0  0
   96.1720  120.9190  112.3200 C   0  0  0  0  0  0  0  0  0  0  0  0
   95.8520  122.0130  113.3320 C   0  0  0  0  0  0  0  0  0  0  0  0
   97.2530  119.7790  110.4820 C   0  0  0  0  0  0  0  0  0  0  0  0
  1  6  1  0  0  0  0
  5  6  1  0  0  0  0
  3  7  1  0  0  0  0
  5  7  1  0  0  0  0
  2  8  1  0  0  0  0
  6  8  2  0  0  0  0
  8  9  1  0  0  0  0
  1 10  1  0  0  0  0
  2 10  2  0  0  0  0
  4 10  1  0  0  0  0
M  END
$$$$
