8BHG
  PyMOL3.1          3D                             0

 46 49  0  0  0  0  0  0  0  0999 V2000
   48.0843   27.7941  239.0319 N   0  0  0  0  0  0  0  0  0  0  0  0
   51.6366   23.6021  237.3012 C   0  0  0  0  0  0  0  0  0  0  0  0
   49.3086   24.0116  236.8917 O   0  0  0  0  0  0  0  0  0  0  0  0
   50.2883   22.9350  237.1659 C   0  0  0  0  0  0  0  0  0  0  0  0
   46.1925   26.9727  236.7246 N   0  0  0  0  0  0  0  0  0  0  0  0
   47.5137   22.6815  237.0535 O   0  0  0  0  0  0  0  0  0  0  0  0
   49.9086   22.1850  238.4263 C   0  0  0  0  0  0  0  0  0  0  0  0
   45.9802   24.8543  236.0336 N   0  0  0  0  0  0  0  0  0  0  0  0
   46.4096   28.4303  240.3714 O   0  0  0  0  0  0  0  0  0  0  0  0
   50.2528   22.0173  235.9717 C   0  0  0  0  0  0  0  0  0  0  0  0
   48.0001   23.7727  236.8918 C   0  0  0  0  0  0  0  0  0  0  0  0
   47.1829   25.0001  236.7080 C   0  0  0  0  0  0  0  0  0  0  0  0
   47.3600   26.2993  237.1416 C   0  0  0  0  0  0  0  0  0  0  0  0
   48.4468   27.0670  237.8115 C   0  0  0  0  0  0  0  0  0  0  0  0
   49.6337   26.2122  238.2868 C   0  0  0  0  0  0  0  0  0  0  0  0
   50.3205   27.1035  239.2988 C   0  0  0  0  0  0  0  0  0  0  0  0
   49.1725   27.8026  240.0210 C   0  0  0  0  0  0  0  0  0  0  0  0
   46.9014   28.3884  239.2592 C   0  0  0  0  0  0  0  0  0  0  0  0
   46.2148   29.0058  238.1208 C   0  0  0  0  0  0  0  0  0  0  0  0
   45.8683   28.3298  236.9308 C   0  0  0  0  0  0  0  0  0  0  0  0
   45.4324   26.0388  236.0731 C   0  0  0  0  0  0  0  0  0  0  0  0
   45.1389   28.9855  235.9361 C   0  0  0  0  0  0  0  0  0  0  0  0
   44.7513   30.3008  236.1147 C   0  0  0  0  0  0  0  0  0  0  0  0
   45.0951   30.9863  237.2661 C   0  0  0  0  0  0  0  0  0  0  0  0
   45.8260   30.3440  238.2497 C   0  0  0  0  0  0  0  0  0  0  0  0
   46.3146   31.3557  239.7753 Br  0  0  0  0  0  0  0  0  0  0  0  0
   51.6726   24.2519  238.1744 H   0  0  0  0  0  0  0  0  0  0  0  0
   51.8671   24.2126  236.4295 H   0  0  0  0  0  0  0  0  0  0  0  0
   52.4342   22.8682  237.4067 H   0  0  0  0  0  0  0  0  0  0  0  0
   50.7277   22.0969  239.1384 H   0  0  0  0  0  0  0  0  0  0  0  0
   49.5790   21.1644  238.2374 H   0  0  0  0  0  0  0  0  0  0  0  0
   49.0951   22.6538  238.9780 H   0  0  0  0  0  0  0  0  0  0  0  0
   49.6306   22.4210  235.1743 H   0  0  0  0  0  0  0  0  0  0  0  0
   51.2475   21.8599  235.5573 H   0  0  0  0  0  0  0  0  0  0  0  0
   49.8518   21.0383  236.2302 H   0  0  0  0  0  0  0  0  0  0  0  0
   48.7478   27.8046  237.0690 H   0  0  0  0  0  0  0  0  0  0  0  0
   50.3344   25.9481  237.4961 H   0  0  0  0  0  0  0  0  0  0  0  0
   49.3435   25.2757  238.7608 H   0  0  0  0  0  0  0  0  0  0  0  0
   50.9441   26.5395  239.9909 H   0  0  0  0  0  0  0  0  0  0  0  0
   50.9934   27.8198  238.8298 H   0  0  0  0  0  0  0  0  0  0  0  0
   49.4033   28.8237  240.3209 H   0  0  0  0  0  0  0  0  0  0  0  0
   48.8587   27.2971  240.9331 H   0  0  0  0  0  0  0  0  0  0  0  0
   44.4636   26.2681  235.6318 H   0  0  0  0  0  0  0  0  0  0  0  0
   44.8684   28.4729  235.0141 H   0  0  0  0  0  0  0  0  0  0  0  0
   44.1699   30.8040  235.3435 H   0  0  0  0  0  0  0  0  0  0  0  0
   44.7952   32.0242  237.4025 H   0  0  0  0  0  0  0  0  0  0  0  0
  2  4  1  0  0  0  0
  3  4  1  0  0  0  0
  4  7  1  0  0  0  0
  4 10  1  0  0  0  0
  3 11  1  0  0  0  0
  6 11  2  0  0  0  0
  8 12  1  0  0  0  0
 11 12  1  0  0  0  0
  5 13  1  0  0  0  0
 12 13  2  0  0  0  0
  1 14  1  0  0  0  0
 13 14  1  0  0  0  0
 14 15  1  0  0  0  0
 15 16  1  0  0  0  0
  1 17  1  0  0  0  0
 16 17  1  0  0  0  0
  1 18  1  0  0  0  0
  9 18  2  0  0  0  0
 18 19  1  0  0  0  0
  5 20  1  0  0  0  0
 19 20  2  0  0  0  0
  5 21  1  0  0  0  0
  8 21  2  0  0  0  0
 20 22  1  0  0  0  0
 22 23  2  0  0  0  0
 23 24  1  0  0  0  0
 19 25  1  0  0  0  0
 24 25  2  0  0  0  0
 25 26  1  0  0  0  0
  2 27  1  0  0  0  0
  2 28  1  0  0  0  0
  2 29  1  0  0  0  0
  7 30  1  0  0  0  0
  7 31  1  0  0  0  0
  7 32  1  0  0  0  0
 10 33  1  0  0  0  0
 10 34  1  0  0  0  0
 10 35  1  0  0  0  0
 14 36  1  0  0  0  0
 15 37  1  0  0  0  0
 15 38  1  0  0  0  0
 16 39  1  0  0  0  0
 16 40  1  0  0  0  0
 17 41  1  0  0  0  0
 17 42  1  0  0  0  0
 21 43  1  0  0  0  0
 22 44  1  0  0  0  0
 23 45  1  0  0  0  0
 24 46  1  0  0  0  0
M  END
$$$$
