8IW7
  PyMOL3.1          3D                             0

  9  9  0  0  0  0  0  0  0  0999 V2000
   87.0150   78.8120  119.5860 N   0  0  0  0  0  0  0  0  0  0  0  0
   84.8460   83.0980  120.0770 C   0  0  0  0  0  0  0  0  0  0  0  0
   83.7520   83.8170  120.5240 C   0  0  0  0  0  0  0  0  0  0  0  0
   82.9570   83.3040  121.5340 C   0  0  0  0  0  0  0  0  0  0  0  0
   83.2560   82.0740  122.0930 C   0  0  0  0  0  0  0  0  0  0  0  0
   84.3520   81.3580  121.6460 C   0  0  0  0  0  0  0  0  0  0  0  0
   85.1450   81.8690  120.6370 C   0  0  0  0  0  0  0  0  0  0  0  0
   86.1840   79.6030  120.4760 C   0  0  0  0  0  0  0  0  0  0  0  0
   86.3530   81.0810  120.1410 C   0  0  0  0  0  0  0  0  0  0  0  0
  2  3  1  0  0  0  0
  3  4  2  0  0  0  0
  4  5  1  0  0  0  0
  5  6  2  0  0  0  0
  2  7  2  0  0  0  0
  6  7  1  0  0  0  0
  1  8  1  0  0  0  0
  7  9  1  0  0  0  0
  8  9  1  0  0  0  0
M  END
$$$$
