7VUU
  PyMOL3.1          3D                             0

 12 13  0  0  0  0  0  0  0  0999 V2000
   21.8908   11.1979   11.4071 N   0  0  0  0  0  0  0  0  0  0  0  0
   22.8025   10.1891   11.2886 N   0  0  0  0  0  0  0  0  0  0  0  0
   21.1094    9.3980   12.4106 C   0  0  0  0  0  0  0  0  0  0  0  0
   22.3093    9.0839   11.9108 N   0  0  0  0  0  0  0  0  0  0  0  0
   20.1860    8.6470   13.1426 C   0  0  0  0  0  0  0  0  0  0  0  0
   19.0028    9.2414   13.5525 C   0  0  0  0  0  0  0  0  0  0  0  0
   18.7267   10.5716   13.2459 C   0  0  0  0  0  0  0  0  0  0  0  0
   19.6443   11.3179   12.5197 C   0  0  0  0  0  0  0  0  0  0  0  0
   20.8473   10.7201   12.1052 C   0  0  0  0  0  0  0  0  0  0  0  0
   18.0859    7.3484   14.4042 O   0  0  0  0  0  0  0  0  0  0  0  0
   16.9872    9.2377   14.9711 O   0  0  0  0  0  0  0  0  0  0  0  0
   18.0037    8.5207   14.3202 N   0  0  0  0  0  0  0  0  0  0  0  0
  1  2  1  0  0  0  0
  2  4  2  0  0  0  0
  3  4  1  0  0  0  0
  3  5  1  0  0  0  0
  5  6  2  0  0  0  0
  6  7  1  0  0  0  0
  7  8  2  0  0  0  0
  1  9  1  0  0  0  0
  3  9  2  0  0  0  0
  8  9  1  0  0  0  0
  6 12  1  0  0  0  0
 10 12  2  0  0  0  0
 11 12  1  0  0  0  0
M  END
$$$$
