7VUU
  PyMOL3.1          3D                             0

 48 52  0  0  0  0  0  0  0  0999 V2000
   21.8908   11.1979   11.4071 N   0  0  0  0  0  0  0  0  0  0  0  0
   22.8025   10.1891   11.2886 N   0  0  0  0  0  0  0  0  0  0  0  0
   21.1094    9.3980   12.4106 C   0  0  0  0  0  0  0  0  0  0  0  0
   22.3093    9.0839   11.9108 N   0  0  0  0  0  0  0  0  0  0  0  0
   20.1860    8.6470   13.1426 C   0  0  0  0  0  0  0  0  0  0  0  0
   19.0028    9.2414   13.5525 C   0  0  0  0  0  0  0  0  0  0  0  0
   18.7267   10.5716   13.2459 C   0  0  0  0  0  0  0  0  0  0  0  0
   19.6443   11.3179   12.5197 C   0  0  0  0  0  0  0  0  0  0  0  0
   20.8473   10.7201   12.1052 C   0  0  0  0  0  0  0  0  0  0  0  0
   18.0859    7.3484   14.4042 O   0  0  0  0  0  0  0  0  0  0  0  0
   16.9872    9.2377   14.9711 O   0  0  0  0  0  0  0  0  0  0  0  0
   18.0037    8.5207   14.3202 N   0  0  0  0  0  0  0  0  0  0  0  0
   11.2399    5.1828   40.1081 N   0  0  0  0  0  0  0  0  0  0  0  0
   11.4821    6.3843   40.7180 N   0  0  0  0  0  0  0  0  0  0  0  0
   10.8315    6.7959   38.6674 C   0  0  0  0  0  0  0  0  0  0  0  0
   11.2167    7.3713   39.8137 N   0  0  0  0  0  0  0  0  0  0  0  0
   10.4537    7.3424   37.4409 C   0  0  0  0  0  0  0  0  0  0  0  0
   10.1036    6.4950   36.3991 C   0  0  0  0  0  0  0  0  0  0  0  0
   10.1254    5.1157   36.5598 C   0  0  0  0  0  0  0  0  0  0  0  0
   10.4963    4.5603   37.7814 C   0  0  0  0  0  0  0  0  0  0  0  0
   10.8484    5.4206   38.8422 C   0  0  0  0  0  0  0  0  0  0  0  0
    9.6266    6.3082   34.1770 O   0  0  0  0  0  0  0  0  0  0  0  0
    9.6058    8.4058   34.9468 O   0  0  0  0  0  0  0  0  0  0  0  0
    9.7418    7.0244   35.1032 N   0  0  0  0  0  0  0  0  0  0  0  0
   25.1114   23.2522   13.7591 N   0  0  0  0  0  0  0  0  0  0  0  0
   25.8717   24.0648   12.9736 N   0  0  0  0  0  0  0  0  0  0  0  0
   24.3255   25.3028   13.9141 C   0  0  0  0  0  0  0  0  0  0  0  0
   25.3746   25.3254   13.0867 N   0  0  0  0  0  0  0  0  0  0  0  0
   23.4706   26.3079   14.3613 C   0  0  0  0  0  0  0  0  0  0  0  0
   22.4454   25.9857   15.2370 C   0  0  0  0  0  0  0  0  0  0  0  0
   22.2622   24.6725   15.6757 C   0  0  0  0  0  0  0  0  0  0  0  0
   23.1202   23.6764   15.2305 C   0  0  0  0  0  0  0  0  0  0  0  0
   24.1567   23.9994   14.3398 C   0  0  0  0  0  0  0  0  0  0  0  0
   21.6751   28.1128   15.5791 O   0  0  0  0  0  0  0  0  0  0  0  0
   20.3628   26.4756   16.3964 O   0  0  0  0  0  0  0  0  0  0  0  0
   21.5026   26.9548   15.7402 N   0  0  0  0  0  0  0  0  0  0  0  0
   18.3085   -5.9761   41.8915 N   0  0  0  0  0  0  0  0  0  0  0  0
   18.4574   -6.6920   43.0432 N   0  0  0  0  0  0  0  0  0  0  0  0
   18.2647   -8.1186   41.4028 C   0  0  0  0  0  0  0  0  0  0  0  0
   18.4282   -8.0212   42.7279 N   0  0  0  0  0  0  0  0  0  0  0  0
   18.1761   -9.2294   40.5603 C   0  0  0  0  0  0  0  0  0  0  0  0
   17.9949   -9.0157   39.2025 C   0  0  0  0  0  0  0  0  0  0  0  0
   17.9082   -7.7360   38.6653 C   0  0  0  0  0  0  0  0  0  0  0  0
   18.0086   -6.6356   39.4985 C   0  0  0  0  0  0  0  0  0  0  0  0
   18.1884   -6.8405   40.8788 C   0  0  0  0  0  0  0  0  0  0  0  0
   17.5774   -9.8868   37.1581 O   0  0  0  0  0  0  0  0  0  0  0  0
   18.0308  -11.4085   38.7412 O   0  0  0  0  0  0  0  0  0  0  0  0
   17.8676  -10.1067   38.2760 N   0  0  0  0  0  0  0  0  0  0  0  0
  1  2  1  0  0  0  0
  2  4  2  0  0  0  0
  3  4  1  0  0  0  0
  3  5  1  0  0  0  0
  5  6  2  0  0  0  0
  6  7  1  0  0  0  0
  7  8  2  0  0  0  0
  1  9  1  0  0  0  0
  3  9  2  0  0  0  0
  8  9  1  0  0  0  0
  6 12  1  0  0  0  0
 10 12  2  0  0  0  0
 11 12  1  0  0  0  0
 13 14  1  0  0  0  0
 14 16  2  0  0  0  0
 15 16  1  0  0  0  0
 15 17  1  0  0  0  0
 17 18  2  0  0  0  0
 18 19  1  0  0  0  0
 19 20  2  0  0  0  0
 13 21  1  0  0  0  0
 15 21  2  0  0  0  0
 20 21  1  0  0  0  0
 18 24  1  0  0  0  0
 22 24  2  0  0  0  0
 23 24  1  0  0  0  0
 25 26  1  0  0  0  0
 26 28  2  0  0  0  0
 27 28  1  0  0  0  0
 27 29  1  0  0  0  0
 29 30  2  0  0  0  0
 30 31  1  0  0  0  0
 31 32  2  0  0  0  0
 25 33  1  0  0  0  0
 27 33  2  0  0  0  0
 32 33  1  0  0  0  0
 30 36  1  0  0  0  0
 34 36  2  0  0  0  0
 35 36  1  0  0  0  0
 37 38  1  0  0  0  0
 38 40  2  0  0  0  0
 39 40  1  0  0  0  0
 39 41  1  0  0  0  0
 41 42  2  0  0  0  0
 42 43  1  0  0  0  0
 43 44  2  0  0  0  0
 37 45  1  0  0  0  0
 39 45  2  0  0  0  0
 44 45  1  0  0  0  0
 42 48  1  0  0  0  0
 46 48  2  0  0  0  0
 47 48  1  0  0  0  0
M  END
$$$$
