7VUU
  PyMOL3.1          3D                             0

 12 13  0  0  0  0  0  0  0  0999 V2000
   11.2399    5.1828   40.1081 N   0  0  0  0  0  0  0  0  0  0  0  0
   11.4821    6.3843   40.7180 N   0  0  0  0  0  0  0  0  0  0  0  0
   10.8315    6.7959   38.6674 C   0  0  0  0  0  0  0  0  0  0  0  0
   11.2167    7.3713   39.8137 N   0  0  0  0  0  0  0  0  0  0  0  0
   10.4537    7.3424   37.4409 C   0  0  0  0  0  0  0  0  0  0  0  0
   10.1036    6.4950   36.3991 C   0  0  0  0  0  0  0  0  0  0  0  0
   10.1254    5.1157   36.5598 C   0  0  0  0  0  0  0  0  0  0  0  0
   10.4963    4.5603   37.7814 C   0  0  0  0  0  0  0  0  0  0  0  0
   10.8484    5.4206   38.8422 C   0  0  0  0  0  0  0  0  0  0  0  0
    9.6266    6.3082   34.1770 O   0  0  0  0  0  0  0  0  0  0  0  0
    9.6058    8.4058   34.9468 O   0  0  0  0  0  0  0  0  0  0  0  0
    9.7418    7.0244   35.1032 N   0  0  0  0  0  0  0  0  0  0  0  0
  1  2  1  0  0  0  0
  2  4  2  0  0  0  0
  3  4  1  0  0  0  0
  3  5  1  0  0  0  0
  5  6  2  0  0  0  0
  6  7  1  0  0  0  0
  7  8  2  0  0  0  0
  1  9  1  0  0  0  0
  3  9  2  0  0  0  0
  8  9  1  0  0  0  0
  6 12  1  0  0  0  0
 10 12  2  0  0  0  0
 11 12  1  0  0  0  0
M  END
$$$$
