8TBS
  PyMOL3.1          3D                             0

 28 32  0  0  0  0  0  0  0  0999 V2000
    7.1341  -71.8065 -196.4941 C   0  0  0  0  0  0  0  0  0  0  0  0
    7.1180  -71.8227 -197.8430 N   0  0  0  0  0  0  0  0  0  0  0  0
    7.0859  -70.5564 -198.4445 C   0  0  0  0  0  0  0  0  0  0  0  0
    7.0626  -69.4658 -197.5261 C   0  0  0  0  0  0  0  0  0  0  0  0
    7.0859  -70.1837 -195.9458 S   0  0  0  0  0  0  0  0  0  0  0  0
    7.0739  -70.0753 -199.7216 N   0  0  0  0  0  0  0  0  0  0  0  0
    7.0425  -68.7063 -199.7032 C   0  0  0  0  0  0  0  0  0  0  0  0
    7.0335  -68.2565 -198.3497 C   0  0  0  0  0  0  0  0  0  0  0  0
    7.0153  -67.6872 -200.7351 C   0  0  0  0  0  0  0  0  0  0  0  0
    6.9740  -66.3977 -200.3844 N   0  0  0  0  0  0  0  0  0  0  0  0
    6.9820  -65.9872 -199.1366 N   0  0  0  0  0  0  0  0  0  0  0  0
    7.0027  -66.8361 -198.1056 C   0  0  0  0  0  0  0  0  0  0  0  0
    7.0181  -67.9842 -201.9097 O   0  0  0  0  0  0  0  0  0  0  0  0
    7.0904  -70.9211 -200.9123 C   0  0  0  0  0  0  0  0  0  0  0  0
    7.1245  -73.0553 -195.6196 C   0  0  0  0  0  0  0  0  0  0  0  0
    5.6260  -73.3365 -195.6237 C   0  0  0  0  0  0  0  0  0  0  0  0
    4.6230  -72.6247 -194.8865 C   0  0  0  0  0  0  0  0  0  0  0  0
    3.3877  -73.2360 -195.2426 C   0  0  0  0  0  0  0  0  0  0  0  0
    3.6883  -74.1956 -196.1149 N   0  0  0  0  0  0  0  0  0  0  0  0
    4.9850  -74.2458 -196.3383 N   0  0  0  0  0  0  0  0  0  0  0  0
    6.9740  -65.4102 -201.4364 C   0  0  0  0  0  0  0  0  0  0  0  0
    8.4741  -65.2093 -201.7089 C   0  0  0  0  0  0  0  0  0  0  0  0
    9.2553  -64.5542 -200.7565 C   0  0  0  0  0  0  0  0  0  0  0  0
   10.6360  -64.3767 -200.9935 C   0  0  0  0  0  0  0  0  0  0  0  0
   11.1321  -64.8957 -202.1984 C   0  0  0  0  0  0  0  0  0  0  0  0
   10.2732  -65.5417 -203.0859 C   0  0  0  0  0  0  0  0  0  0  0  0
    8.9853  -65.6861 -202.8183 N   0  0  0  0  0  0  0  0  0  0  0  0
   10.7890  -66.0585 -204.3026 N   0  0  0  0  0  0  0  0  0  0  0  0
  1  2  2  0  0  0  0
  2  3  1  0  0  0  0
  3  4  2  0  0  0  0
  1  5  1  0  0  0  0
  4  5  1  0  0  0  0
  3  6  1  0  0  0  0
  6  7  1  0  0  0  0
  4  8  1  0  0  0  0
  7  8  2  0  0  0  0
  7  9  1  0  0  0  0
  9 10  1  0  0  0  0
 10 11  1  0  0  0  0
  8 12  1  0  0  0  0
 11 12  2  0  0  0  0
  9 13  2  0  0  0  0
  6 14  1  0  0  0  0
  1 15  1  0  0  0  0
 15 16  1  0  0  0  0
 16 17  1  0  0  0  0
 17 18  2  0  0  0  0
 18 19  1  0  0  0  0
 16 20  2  0  0  0  0
 19 20  1  0  0  0  0
 10 21  1  0  0  0  0
 21 22  1  0  0  0  0
 22 23  2  0  0  0  0
 23 24  1  0  0  0  0
 24 25  2  0  0  0  0
 25 26  1  0  0  0  0
 22 27  1  0  0  0  0
 26 27  2  0  0  0  0
 26 28  1  0  0  0  0
M  END
$$$$
