8UT1
  PyMOL3.1          3D                             0

 27 29  0  0  0  0  0  0  0  0999 V2000
  155.4240  153.0550  183.6590 Cl  0  0  0  0  0  0  0  0  0  0  0  0
  158.5360  153.0350  178.5770 C   0  0  0  0  0  0  0  0  0  0  0  0
  159.5310  150.9610  178.2120 N   0  0  0  0  0  0  0  0  0  0  0  0
  160.0800  153.1490  178.6350 C   0  0  0  0  0  0  0  0  0  0  0  0
  155.8360  152.4420  181.1620 N   0  0  0  0  0  0  0  0  0  0  0  0
  160.5120  151.9610  177.7850 C   0  0  0  0  0  0  0  0  0  0  0  0
  160.1450  152.2170  176.3370 C   0  0  0  0  0  0  0  0  0  0  0  0
  158.6380  151.9840  176.3030 C   0  0  0  0  0  0  0  0  0  0  0  0
  158.3460  151.7250  177.7830 C   0  0  0  0  0  0  0  0  0  0  0  0
  157.8200  152.9950  179.9100 C   0  0  0  0  0  0  0  0  0  0  0  0
  158.3480  153.5860  181.0440 C   0  0  0  0  0  0  0  0  0  0  0  0
  157.6350  153.6060  182.2250 C   0  0  0  0  0  0  0  0  0  0  0  0
  156.3880  153.0260  182.2110 C   0  0  0  0  0  0  0  0  0  0  0  0
  156.5520  152.4550  180.0310 C   0  0  0  0  0  0  0  0  0  0  0  0
  159.5490  150.8020  179.0570 H   0  0  0  0  0  0  0  0  0  0  0  0
  158.1410  153.8250  178.1780 H   0  0  0  0  0  0  0  0  0  0  0  0
  161.4560  151.7500  177.8680 H   0  0  0  0  0  0  0  0  0  0  0  0
  157.4680  151.3330  177.9100 H   0  0  0  0  0  0  0  0  0  0  0  0
  159.1920  153.9750  181.0100 H   0  0  0  0  0  0  0  0  0  0  0  0
  157.9810  153.9930  182.9960 H   0  0  0  0  0  0  0  0  0  0  0  0
  156.1700  152.0740  179.2730 H   0  0  0  0  0  0  0  0  0  0  0  0
  160.3970  153.9910  178.2720 H   0  0  0  0  0  0  0  0  0  0  0  0
  160.4160  153.0880  179.5430 H   0  0  0  0  0  0  0  0  0  0  0  0
  160.3730  153.1200  176.0660 H   0  0  0  0  0  0  0  0  0  0  0  0
  160.6130  151.6140  175.7380 H   0  0  0  0  0  0  0  0  0  0  0  0
  158.1560  152.7540  175.9640 H   0  0  0  0  0  0  0  0  0  0  0  0
  158.3970  151.2290  175.7440 H   0  0  0  0  0  0  0  0  0  0  0  0
  2  4  1  0  0  0  0
  3  6  1  0  0  0  0
  4  6  1  0  0  0  0
  6  7  1  0  0  0  0
  7  8  1  0  0  0  0
  2  9  1  0  0  0  0
  3  9  1  0  0  0  0
  8  9  1  0  0  0  0
  2 10  1  0  0  0  0
 10 11  2  0  0  0  0
 11 12  1  0  0  0  0
  1 13  1  0  0  0  0
  5 13  1  0  0  0  0
 12 13  2  0  0  0  0
  5 14  2  0  0  0  0
 10 14  1  0  0  0  0
  3 15  1  0  0  0  0
  2 16  1  0  0  0  0
  6 17  1  0  0  0  0
  9 18  1  0  0  0  0
 11 19  1  0  0  0  0
 12 20  1  0  0  0  0
 14 21  1  0  0  0  0
  4 22  1  0  0  0  0
  4 23  1  0  0  0  0
  7 24  1  0  0  0  0
  7 25  1  0  0  0  0
  8 26  1  0  0  0  0
  8 27  1  0  0  0  0
M  END
$$$$
