7LEK
  PyMOL3.1          3D                             0

 47 53  0  0  0  0  0  0  0  0999 V2000
   14.8680  -37.8980   47.8210 C   0  0  0  0  0  0  0  0  0  0  0  0
   15.0480  -39.0580   48.8990 C   0  0  0  0  0  0  0  0  0  0  0  0
   13.8290  -39.8480   49.0200 O   0  0  0  0  0  0  0  0  0  0  0  0
   13.8250  -41.1600   48.4000 C   0  0  0  0  0  0  0  0  0  0  0  0
   13.5570  -41.2650   46.9680 C   0  0  0  0  0  0  0  0  0  0  0  0
   13.5390  -42.4880   46.3370 C   0  0  0  0  0  0  0  0  0  0  0  0
   13.7930  -43.7030   47.0930 C   0  0  0  0  0  0  0  0  0  0  0  0
   14.0410  -43.6040   48.4500 C   0  0  0  0  0  0  0  0  0  0  0  0
   14.3090  -44.8980   49.2520 C   0  0  0  0  0  0  0  0  0  0  0  0
   15.7130  -45.3610   49.3590 N   0  0  0  0  0  0  0  0  0  0  0  0
   16.8300  -44.6200   48.7690 C   0  0  0  0  0  0  0  0  0  0  0  0
   17.7960  -44.2750   49.8360 C   0  0  0  0  0  0  0  0  0  0  0  0
   17.3210  -44.5610   51.2430 C   0  0  0  0  0  0  0  0  0  0  0  0
   18.0410  -44.8170   52.2870 N   0  0  0  0  0  0  0  0  0  0  0  0
   19.3490  -44.6150   52.1080 C   0  0  0  0  0  0  0  0  0  0  0  0
   20.0440  -43.6290   53.0820 C   0  0  0  0  0  0  0  0  0  0  0  0
   19.5380  -43.6990   54.3700 N   0  0  0  0  0  0  0  0  0  0  0  0
   18.2260  -43.4490   54.3750 C   0  0  0  0  0  0  0  0  0  0  0  0
   17.4230  -44.4110   53.4760 C   0  0  0  0  0  0  0  0  0  0  0  0
   19.8030  -44.7850   54.9000 C   0  0  0  0  0  0  0  0  0  0  0  0
   16.8090  -45.9890   51.4090 C   0  0  0  0  0  0  0  0  0  0  0  0
   16.1360  -46.5580   50.1160 C   0  0  0  0  0  0  0  0  0  0  0  0
   13.3950  -45.5190   49.7680 O   0  0  0  0  0  0  0  0  0  0  0  0
   14.0640  -42.3180   49.1250 C   0  0  0  0  0  0  0  0  0  0  0  0
   13.2970  -40.0080   46.2410 N   0  0  0  0  0  0  0  0  0  0  0  0
   13.3190  -39.8330   44.7480 C   0  0  0  0  0  0  0  0  0  0  0  0
   13.2000  -38.5090   44.2810 N   0  0  0  0  0  0  0  0  0  0  0  0
   13.2030  -38.2300   43.0100 C   0  0  0  0  0  0  0  0  0  0  0  0
   13.3210  -39.2980   42.1290 C   0  0  0  0  0  0  0  0  0  0  0  0
   13.3320  -39.0230   40.6960 N   0  0  0  0  0  0  0  0  0  0  0  0
   14.1150  -39.6010   39.7070 C   0  0  0  0  0  0  0  0  0  0  0  0
   15.1060  -40.6980   40.0220 C   0  0  0  0  0  0  0  0  0  0  0  0
   14.8390  -41.7730   40.8640 C   0  0  0  0  0  0  0  0  0  0  0  0
   13.5950  -41.8530   41.5740 N   0  0  0  0  0  0  0  0  0  0  0  0
   13.4160  -40.6500   42.6360 C   0  0  0  0  0  0  0  0  0  0  0  0
   13.4440  -40.8490   43.9520 N   0  0  0  0  0  0  0  0  0  0  0  0
   13.2100  -43.2370   42.0030 C   0  0  0  0  0  0  0  0  0  0  0  0
   12.9340  -44.5530   41.0750 C   0  0  0  0  0  0  0  0  0  0  0  0
   11.9780  -45.2490   41.7110 C   0  0  0  0  0  0  0  0  0  0  0  0
   11.0360  -44.1040   42.5030 C   0  0  0  0  0  0  0  0  0  0  0  0
   11.7540  -42.9170   42.5430 C   0  0  0  0  0  0  0  0  0  0  0  0
   15.8460  -42.7680   41.1220 C   0  0  0  0  0  0  0  0  0  0  0  0
   17.1450  -42.6620   40.4210 C   0  0  0  0  0  0  0  0  0  0  0  0
   17.4000  -41.5730   39.5280 C   0  0  0  0  0  0  0  0  0  0  0  0
   16.4240  -40.5900   39.3000 C   0  0  0  0  0  0  0  0  0  0  0  0
   13.9910  -39.2480   38.6250 O   0  0  0  0  0  0  0  0  0  0  0  0
   12.3750  -37.9410   40.2580 C   0  0  0  0  0  0  0  0  0  0  0  0
  1  2  1  0  0  0  0
  2  3  1  0  0  0  0
  3  4  1  0  0  0  0
  4  5  1  0  0  0  0
  5  6  2  0  0  0  0
  6  7  1  0  0  0  0
  7  8  2  0  0  0  0
  8  9  1  0  0  0  0
  9 10  1  0  0  0  0
 10 11  1  0  0  0  0
 11 12  1  0  0  0  0
 12 13  1  0  0  0  0
 13 14  1  0  0  0  0
 14 15  1  0  0  0  0
 15 16  1  0  0  0  0
 16 17  1  0  0  0  0
 17 18  1  0  0  0  0
 14 19  1  0  0  0  0
 18 19  1  0  0  0  0
 17 20  1  0  0  0  0
 13 21  1  0  0  0  0
 10 22  1  0  0  0  0
 21 22  1  0  0  0  0
  9 23  2  0  0  0  0
  4 24  2  0  0  0  0
  8 24  1  0  0  0  0
  5 25  1  0  0  0  0
 25 26  1  0  0  0  0
 26 27  1  0  0  0  0
 27 28  2  0  0  0  0
 28 29  1  0  0  0  0
 29 30  1  0  0  0  0
 30 31  1  0  0  0  0
 31 32  1  0  0  0  0
 32 33  1  0  0  0  0
 33 34  1  0  0  0  0
 29 35  2  0  0  0  0
 34 35  1  0  0  0  0
 26 36  2  0  0  0  0
 35 36  1  0  0  0  0
 34 37  1  0  0  0  0
 37 38  1  0  0  0  0
 38 39  1  0  0  0  0
 39 40  1  0  0  0  0
 37 41  1  0  0  0  0
 40 41  1  0  0  0  0
 33 42  2  0  0  0  0
 42 43  1  0  0  0  0
 43 44  2  0  0  0  0
 32 45  2  0  0  0  0
 44 45  1  0  0  0  0
 31 46  2  0  0  0  0
 30 47  1  0  0  0  0
M  END
$$$$
