7LEK
  PyMOL3.1          3D                             0

 47 53  0  0  0  0  0  0  0  0999 V2000
   13.7140  -20.2130   15.3260 C   0  0  0  0  0  0  0  0  0  0  0  0
   14.1140  -21.7530   15.3040 C   0  0  0  0  0  0  0  0  0  0  0  0
   15.1630  -21.9710   14.3170 O   0  0  0  0  0  0  0  0  0  0  0  0
   15.0520  -23.1660   13.5010 C   0  0  0  0  0  0  0  0  0  0  0  0
   14.1650  -23.1240   12.3550 C   0  0  0  0  0  0  0  0  0  0  0  0
   14.0310  -24.2400   11.5500 C   0  0  0  0  0  0  0  0  0  0  0  0
   14.7880  -25.4570   11.8380 C   0  0  0  0  0  0  0  0  0  0  0  0
   15.6420  -25.4870   12.9230 C   0  0  0  0  0  0  0  0  0  0  0  0
   16.4650  -26.7630   13.2650 C   0  0  0  0  0  0  0  0  0  0  0  0
   17.9380  -26.7940   12.9930 N   0  0  0  0  0  0  0  0  0  0  0  0
   18.6510  -25.6550   12.3980 C   0  0  0  0  0  0  0  0  0  0  0  0
   19.6970  -25.1650   13.3230 C   0  0  0  0  0  0  0  0  0  0  0  0
   20.7720  -26.1960   13.5760 C   0  0  0  0  0  0  0  0  0  0  0  0
   21.7540  -26.2160   14.4470 N   0  0  0  0  0  0  0  0  0  0  0  0
   22.9230  -26.3420   13.8160 C   0  0  0  0  0  0  0  0  0  0  0  0
   23.3850  -25.0130   13.1590 C   0  0  0  0  0  0  0  0  0  0  0  0
   23.4770  -23.9870   14.0930 N   0  0  0  0  0  0  0  0  0  0  0  0
   22.3390  -23.8160   14.7780 C   0  0  0  0  0  0  0  0  0  0  0  0
   21.7310  -25.1300   15.3360 C   0  0  0  0  0  0  0  0  0  0  0  0
   23.7600  -22.9350   13.5120 C   0  0  0  0  0  0  0  0  0  0  0  0
   20.1600  -27.5080   14.0660 C   0  0  0  0  0  0  0  0  0  0  0  0
   18.8410  -27.9430   13.3000 C   0  0  0  0  0  0  0  0  0  0  0  0
   15.9080  -27.7170   13.7740 O   0  0  0  0  0  0  0  0  0  0  0  0
   15.7740  -24.3180   13.7690 C   0  0  0  0  0  0  0  0  0  0  0  0
   13.4500  -21.8310   12.1670 N   0  0  0  0  0  0  0  0  0  0  0  0
   12.6610  -21.4610   10.9450 C   0  0  0  0  0  0  0  0  0  0  0  0
   12.2980  -20.1150   10.7180 N   0  0  0  0  0  0  0  0  0  0  0  0
   11.6070  -19.7790    9.6520 C   0  0  0  0  0  0  0  0  0  0  0  0
   11.2400  -20.7960    8.7590 C   0  0  0  0  0  0  0  0  0  0  0  0
   10.4530  -20.5090    7.5560 N   0  0  0  0  0  0  0  0  0  0  0  0
   10.5210  -21.0620    6.2840 C   0  0  0  0  0  0  0  0  0  0  0  0
   11.5090  -22.1480    5.9160 C   0  0  0  0  0  0  0  0  0  0  0  0
   11.8160  -23.2370    6.7280 C   0  0  0  0  0  0  0  0  0  0  0  0
   11.2400  -23.3490    8.0440 N   0  0  0  0  0  0  0  0  0  0  0  0
   11.6170  -22.1550    9.0560 C   0  0  0  0  0  0  0  0  0  0  0  0
   12.3400  -22.4070   10.1350 N   0  0  0  0  0  0  0  0  0  0  0  0
   11.2790  -24.6880    8.7190 C   0  0  0  0  0  0  0  0  0  0  0  0
   10.8470  -26.1920    8.2170 C   0  0  0  0  0  0  0  0  0  0  0  0
    9.9660  -26.6790    9.1150 C   0  0  0  0  0  0  0  0  0  0  0  0
    9.7570  -25.5170   10.3090 C   0  0  0  0  0  0  0  0  0  0  0  0
   10.1090  -24.3220    9.7220 C   0  0  0  0  0  0  0  0  0  0  0  0
   12.7850  -24.2060    6.2890 C   0  0  0  0  0  0  0  0  0  0  0  0
   13.4030  -24.0630    4.9490 C   0  0  0  0  0  0  0  0  0  0  0  0
   13.0560  -22.9590    4.1080 C   0  0  0  0  0  0  0  0  0  0  0  0
   12.1300  -22.0010    4.5500 C   0  0  0  0  0  0  0  0  0  0  0  0
    9.7930  -20.6780    5.4920 O   0  0  0  0  0  0  0  0  0  0  0  0
    9.4020  -19.4440    7.7530 C   0  0  0  0  0  0  0  0  0  0  0  0
  1  2  1  0  0  0  0
  2  3  1  0  0  0  0
  3  4  1  0  0  0  0
  4  5  1  0  0  0  0
  5  6  2  0  0  0  0
  6  7  1  0  0  0  0
  7  8  2  0  0  0  0
  8  9  1  0  0  0  0
  9 10  1  0  0  0  0
 10 11  1  0  0  0  0
 11 12  1  0  0  0  0
 12 13  1  0  0  0  0
 13 14  1  0  0  0  0
 14 15  1  0  0  0  0
 15 16  1  0  0  0  0
 16 17  1  0  0  0  0
 17 18  1  0  0  0  0
 14 19  1  0  0  0  0
 18 19  1  0  0  0  0
 17 20  1  0  0  0  0
 13 21  1  0  0  0  0
 10 22  1  0  0  0  0
 21 22  1  0  0  0  0
  9 23  2  0  0  0  0
  4 24  2  0  0  0  0
  8 24  1  0  0  0  0
  5 25  1  0  0  0  0
 25 26  1  0  0  0  0
 26 27  1  0  0  0  0
 27 28  2  0  0  0  0
 28 29  1  0  0  0  0
 29 30  1  0  0  0  0
 30 31  1  0  0  0  0
 31 32  1  0  0  0  0
 32 33  1  0  0  0  0
 33 34  1  0  0  0  0
 29 35  2  0  0  0  0
 34 35  1  0  0  0  0
 26 36  2  0  0  0  0
 35 36  1  0  0  0  0
 34 37  1  0  0  0  0
 37 38  1  0  0  0  0
 38 39  1  0  0  0  0
 39 40  1  0  0  0  0
 37 41  1  0  0  0  0
 40 41  1  0  0  0  0
 33 42  2  0  0  0  0
 42 43  1  0  0  0  0
 43 44  2  0  0  0  0
 32 45  2  0  0  0  0
 44 45  1  0  0  0  0
 31 46  2  0  0  0  0
 30 47  1  0  0  0  0
M  END
$$$$
