7VIG
  PyMOL3.1          3D                             0

 30 33  0  0  0  0  0  0  0  0999 V2000
  119.0100  113.3230   91.6250 C   0  0  0  0  0  0  0  0  0  0  0  0
  117.8780  114.0830   90.9180 C   0  0  0  0  0  0  0  0  0  0  0  0
  116.5570  113.6040   91.5260 C   0  0  0  0  0  0  0  0  0  0  0  0
  117.8120  113.7050   89.4320 C   0  0  0  0  0  0  0  0  0  0  0  0
  119.1500  113.6720   88.6500 C   0  0  0  0  0  0  0  0  0  0  0  0
  120.4170  113.7500   89.1800 C   0  0  0  0  0  0  0  0  0  0  0  0
  121.5630  113.7080   88.3530 C   0  0  0  0  0  0  0  0  0  0  0  0
  121.4330  113.5640   86.9760 C   0  0  0  0  0  0  0  0  0  0  0  0
  122.5270  113.4730   85.8870 C   0  0  0  0  0  0  0  0  0  0  0  0
  123.8010  113.0370   85.7570 N   0  0  0  0  0  0  0  0  0  0  0  0
  124.1650  113.1980   84.4420 C   0  0  0  0  0  0  0  0  0  0  0  0
  125.4210  112.9710   83.5180 C   0  0  0  0  0  0  0  0  0  0  0  0
  125.1360  113.1690   82.1760 C   0  0  0  0  0  0  0  0  0  0  0  0
  126.0060  113.0710   81.1480 C   0  0  0  0  0  0  0  0  0  0  0  0
  127.2720  112.7460   81.4150 C   0  0  0  0  0  0  0  0  0  0  0  0
  128.2020  112.6700   80.2240 C   0  0  0  0  0  0  0  0  0  0  0  0
  129.1770  112.0510   80.2350 N   0  0  0  0  0  0  0  0  0  0  0  0
  130.0890  112.5030   79.2360 C   0  0  0  0  0  0  0  0  0  0  0  0
  129.9130  111.2800   78.5560 C   0  0  0  0  0  0  0  0  0  0  0  0
  131.1720  110.4700   78.0670 C   0  0  0  0  0  0  0  0  0  0  0  0
  131.1400  109.2650   78.2140 O   0  0  0  0  0  0  0  0  0  0  0  0
  132.1270  111.0250   77.5370 O   0  0  0  0  0  0  0  0  0  0  0  0
  129.1700  110.7640   79.6470 C   0  0  0  0  0  0  0  0  0  0  0  0
  127.6350  112.5440   82.6890 C   0  0  0  0  0  0  0  0  0  0  0  0
  126.7490  112.6320   83.7990 C   0  0  0  0  0  0  0  0  0  0  0  0
  123.0950  113.6950   83.8640 N   0  0  0  0  0  0  0  0  0  0  0  0
  122.1460  113.8100   84.7150 O   0  0  0  0  0  0  0  0  0  0  0  0
  120.1490  113.5070   86.4980 C   0  0  0  0  0  0  0  0  0  0  0  0
  119.0630  113.5440   87.3110 C   0  0  0  0  0  0  0  0  0  0  0  0
  128.9320  112.2270   82.7440 F   0  0  0  0  0  0  0  0  0  0  0  0
  1  2  1  0  0  0  0
  2  3  1  0  0  0  0
  2  4  1  0  0  0  0
  4  5  1  0  0  0  0
  5  6  1  0  0  0  0
  6  7  2  0  0  0  0
  7  8  1  0  0  0  0
  8  9  1  0  0  0  0
  9 10  2  0  0  0  0
 10 11  1  0  0  0  0
 11 12  1  0  0  0  0
 12 13  2  0  0  0  0
 13 14  1  0  0  0  0
 14 15  2  0  0  0  0
 15 16  1  0  0  0  0
 16 17  1  0  0  0  0
 17 18  1  0  0  0  0
 18 19  1  0  0  0  0
 19 20  1  0  0  0  0
 20 21  1  0  0  0  0
 20 22  2  0  0  0  0
 17 23  1  0  0  0  0
 19 23  1  0  0  0  0
 15 24  1  0  0  0  0
 12 25  1  0  0  0  0
 24 25  2  0  0  0  0
 11 26  2  0  0  0  0
  9 27  1  0  0  0  0
 26 27  1  0  0  0  0
  8 28  2  0  0  0  0
  5 29  2  0  0  0  0
 28 29  1  0  0  0  0
 24 30  1  0  0  0  0
M  END
$$$$
