7UN4
  PyMOL3.1          3D                             0

 21 23  0  0  0  0  0  0  0  0999 V2000
   -1.7047   16.3643  -32.1482 C   0  0  0  0  0  0  0  0  0  0  0  0
   -1.7893   15.7400  -30.7248 C   0  0  0  0  0  0  0  0  0  0  0  0
   -0.3492   15.5655  -30.1787 C   0  0  0  0  0  0  0  0  0  0  0  0
   -2.5785   16.6940  -29.8057 C   0  0  0  0  0  0  0  0  0  0  0  0
   -2.5213   14.3686  -30.7222 C   0  0  0  0  0  0  0  0  0  0  0  0
   -3.6137   14.3173  -31.3459 O   0  0  0  0  0  0  0  0  0  0  0  0
   -2.0386   13.0951  -30.0320 C   0  0  0  0  0  0  0  0  0  0  0  0
   -3.0755   11.5116  -30.2829 S   0  0  0  0  0  0  0  0  0  0  0  0
   -2.7680   10.6680  -31.9104 C   0  0  0  0  0  0  0  0  0  0  0  0
   -3.3064    9.4502  -32.1545 N   0  0  0  0  0  0  0  0  0  0  0  0
   -3.0708    8.8305  -33.3682 C   0  0  0  0  0  0  0  0  0  0  0  0
   -2.2598    9.4666  -34.3644 C   0  0  0  0  0  0  0  0  0  0  0  0
   -1.9757    8.7998  -35.7211 C   0  0  0  0  0  0  0  0  0  0  0  0
   -1.1927    9.7116  -36.7639 C   0  0  0  0  0  0  0  0  0  0  0  0
   -0.6322   11.0106  -36.2483 C   0  0  0  0  0  0  0  0  0  0  0  0
    0.4208   12.2565  -36.9915 S   0  0  0  0  0  0  0  0  0  0  0  0
    0.4913   13.3457  -35.6177 C   0  0  0  0  0  0  0  0  0  0  0  0
   -0.2856   12.7521  -34.6109 C   0  0  0  0  0  0  0  0  0  0  0  0
   -0.8968   11.4801  -34.9565 C   0  0  0  0  0  0  0  0  0  0  0  0
   -1.7306   10.7239  -34.0486 C   0  0  0  0  0  0  0  0  0  0  0  0
   -1.9808   11.3312  -32.8222 N   0  0  0  0  0  0  0  0  0  0  0  0
  1  2  1  0  0  0  0
  2  3  1  0  0  0  0
  2  4  1  0  0  0  0
  2  5  1  0  0  0  0
  5  6  2  0  0  0  0
  5  7  1  0  0  0  0
  7  8  1  0  0  0  0
  8  9  1  0  0  0  0
  9 10  1  0  0  0  0
 10 11  2  0  0  0  0
 11 12  1  0  0  0  0
 12 13  1  0  0  0  0
 13 14  1  0  0  0  0
 14 15  1  0  0  0  0
 15 16  1  0  0  0  0
 16 17  1  0  0  0  0
 17 18  2  0  0  0  0
 15 19  2  0  0  0  0
 18 19  1  0  0  0  0
 12 20  2  0  0  0  0
 19 20  1  0  0  0  0
  9 21  2  0  0  0  0
 20 21  1  0  0  0  0
M  END
$$$$
