7UN4
  PyMOL3.1          3D                             0

 21 23  0  0  0  0  0  0  0  0999 V2000
  -32.1395  -29.4440  -48.4170 C   0  0  0  0  0  0  0  0  0  0  0  0
  -33.5991  -28.9226  -48.2873 C   0  0  0  0  0  0  0  0  0  0  0  0
  -34.0922  -29.1992  -46.8478 C   0  0  0  0  0  0  0  0  0  0  0  0
  -33.6220  -27.4040  -48.5576 C   0  0  0  0  0  0  0  0  0  0  0  0
  -34.5497  -29.5999  -49.3081 C   0  0  0  0  0  0  0  0  0  0  0  0
  -34.0246  -30.4396  -50.0846 O   0  0  0  0  0  0  0  0  0  0  0  0
  -36.0449  -29.3416  -49.4523 C   0  0  0  0  0  0  0  0  0  0  0  0
  -36.9874  -30.3744  -50.7501 S   0  0  0  0  0  0  0  0  0  0  0  0
  -37.1474  -32.1710  -50.3080 C   0  0  0  0  0  0  0  0  0  0  0  0
  -38.0291  -32.9508  -50.9739 N   0  0  0  0  0  0  0  0  0  0  0  0
  -38.1464  -34.2873  -50.6409 C   0  0  0  0  0  0  0  0  0  0  0  0
  -37.3440  -34.8491  -49.5951 C   0  0  0  0  0  0  0  0  0  0  0  0
  -37.4521  -36.3317  -49.1975 C   0  0  0  0  0  0  0  0  0  0  0  0
  -36.2732  -36.8422  -48.2630 C   0  0  0  0  0  0  0  0  0  0  0  0
  -35.4967  -35.7813  -47.5314 C   0  0  0  0  0  0  0  0  0  0  0  0
  -34.3369  -35.8466  -46.1692 S   0  0  0  0  0  0  0  0  0  0  0  0
  -34.0054  -34.1246  -46.0711 C   0  0  0  0  0  0  0  0  0  0  0  0
  -34.7786  -33.5207  -47.0742 C   0  0  0  0  0  0  0  0  0  0  0  0
  -35.5891  -34.4259  -47.8691 C   0  0  0  0  0  0  0  0  0  0  0  0
  -36.4523  -33.9898  -48.9434 C   0  0  0  0  0  0  0  0  0  0  0  0
  -36.3492  -32.6464  -49.2930 N   0  0  0  0  0  0  0  0  0  0  0  0
  1  2  1  0  0  0  0
  2  3  1  0  0  0  0
  2  4  1  0  0  0  0
  2  5  1  0  0  0  0
  5  6  2  0  0  0  0
  5  7  1  0  0  0  0
  7  8  1  0  0  0  0
  8  9  1  0  0  0  0
  9 10  1  0  0  0  0
 10 11  2  0  0  0  0
 11 12  1  0  0  0  0
 12 13  1  0  0  0  0
 13 14  1  0  0  0  0
 14 15  1  0  0  0  0
 15 16  1  0  0  0  0
 16 17  1  0  0  0  0
 17 18  2  0  0  0  0
 15 19  2  0  0  0  0
 18 19  1  0  0  0  0
 12 20  2  0  0  0  0
 19 20  1  0  0  0  0
  9 21  2  0  0  0  0
 20 21  1  0  0  0  0
M  END
$$$$
