7LPQ
  PyMOL3.1          3D                             0

 44 46  0  0  0  0  0  0  0  0999 V2000
  -38.5800   11.8160   -8.9160 C   0  0  0  0  0  0  0  0  0  0  0  0
  -37.8570   10.6100   -9.3640 N   0  0  0  0  0  0  0  0  0  0  0  0
  -37.8710    9.5710   -8.3240 C   0  0  0  0  0  0  0  0  0  0  0  0
  -36.5370    8.7190   -8.5730 C   0  0  0  0  0  0  0  0  0  0  0  0
  -35.6280    8.4370   -7.4420 N   0  0  0  0  0  0  0  0  0  0  0  0
  -35.8370    7.5950   -6.4170 C   0  0  0  0  0  0  0  0  0  0  0  0
  -36.9320    6.9860   -6.4010 O   0  0  0  0  0  0  0  0  0  0  0  0
  -34.8790    7.2850   -5.2740 C   0  0  0  0  0  0  0  0  0  0  0  0
  -35.3220    7.5950   -3.8560 C   0  0  0  0  0  0  0  0  0  0  0  0
  -34.6840    8.5530   -3.0490 C   0  0  0  0  0  0  0  0  0  0  0  0
  -35.1270    8.8120   -1.7360 C   0  0  0  0  0  0  0  0  0  0  0  0
  -36.2410    8.1210   -1.1750 C   0  0  0  0  0  0  0  0  0  0  0  0
  -36.8900    7.1600   -1.9810 C   0  0  0  0  0  0  0  0  0  0  0  0
  -36.4190    6.9250   -3.2900 C   0  0  0  0  0  0  0  0  0  0  0  0
  -38.0070    6.4690   -1.4110 N   0  0  0  0  0  0  0  0  0  0  0  0
  -38.6410    6.9480   -0.2820 C   0  0  0  0  0  0  0  0  0  0  0  0
  -39.6180    6.3710    0.2530 O   0  0  0  0  0  0  0  0  0  0  0  0
  -38.1080    8.1580    0.3370 C   0  0  0  0  0  0  0  0  0  0  0  0
  -36.6900    8.3580    0.0610 O   0  0  0  0  0  0  0  0  0  0  0  0
  -35.8200    9.6070   -9.6480 C   0  0  0  0  0  0  0  0  0  0  0  0
  -36.4000   10.9290   -9.5220 C   0  0  0  0  0  0  0  0  0  0  0  0
  -36.2870   11.8990  -10.6770 C   0  0  0  0  0  0  0  0  0  0  0  0
  -36.3270   11.1820  -11.8930 O   0  0  0  0  0  0  0  0  0  0  0  0
  -39.2620   11.5620   -8.3230 H   0  0  0  0  0  0  0  0  0  0  0  0
  -38.9500   12.2470   -9.6630 H   0  0  0  0  0  0  0  0  0  0  0  0
  -37.9770   12.3900   -8.4820 H   0  0  0  0  0  0  0  0  0  0  0  0
  -37.9280   10.0650   -7.5270 H   0  0  0  0  0  0  0  0  0  0  0  0
  -38.6940    9.1400   -8.4620 H   0  0  0  0  0  0  0  0  0  0  0  0
  -36.8220    7.8930   -8.9170 H   0  0  0  0  0  0  0  0  0  0  0  0
  -34.9200    8.9250   -7.5650 H   0  0  0  0  0  0  0  0  0  0  0  0
  -34.0760    7.7110   -5.5110 H   0  0  0  0  0  0  0  0  0  0  0  0
  -34.6400    6.3850   -5.3970 H   0  0  0  0  0  0  0  0  0  0  0  0
  -33.9570    9.0260   -3.3820 H   0  0  0  0  0  0  0  0  0  0  0  0
  -34.6700    9.4520   -1.2410 H   0  0  0  0  0  0  0  0  0  0  0  0
  -36.8530    6.2940   -3.8160 H   0  0  0  0  0  0  0  0  0  0  0  0
  -38.3140    5.7420   -1.7530 H   0  0  0  0  0  0  0  0  0  0  0  0
  -38.6920    8.8700    0.0330 H   0  0  0  0  0  0  0  0  0  0  0  0
  -38.3380    8.0770    1.2760 H   0  0  0  0  0  0  0  0  0  0  0  0
  -34.8650    9.6040   -9.4820 H   0  0  0  0  0  0  0  0  0  0  0  0
  -35.9600    9.2230  -10.5270 H   0  0  0  0  0  0  0  0  0  0  0  0
  -36.1240   11.4450   -8.7490 H   0  0  0  0  0  0  0  0  0  0  0  0
  -35.4530   12.3720  -10.5250 H   0  0  0  0  0  0  0  0  0  0  0  0
  -37.0250   12.5160  -10.5580 H   0  0  0  0  0  0  0  0  0  0  0  0
  -36.2460   11.7330  -12.5370 H   0  0  0  0  0  0  0  0  0  0  0  0
  1  2  1  0  0  0  0
  2  3  1  0  0  0  0
  3  4  1  0  0  0  0
  4  5  1  0  0  0  0
  5  6  1  0  0  0  0
  6  7  2  0  0  0  0
  6  8  1  0  0  0  0
  8  9  1  0  0  0  0
  9 10  2  0  0  0  0
 10 11  1  0  0  0  0
 11 12  2  0  0  0  0
 12 13  1  0  0  0  0
  9 14  1  0  0  0  0
 13 14  2  0  0  0  0
 13 15  1  0  0  0  0
 15 16  1  0  0  0  0
 16 17  2  0  0  0  0
 16 18  1  0  0  0  0
 12 19  1  0  0  0  0
 18 19  1  0  0  0  0
  4 20  1  0  0  0  0
  2 21  1  0  0  0  0
 20 21  1  0  0  0  0
 21 22  1  0  0  0  0
 22 23  1  0  0  0  0
  1 24  1  0  0  0  0
  1 25  1  0  0  0  0
  1 26  1  0  0  0  0
  3 27  1  0  0  0  0
  3 28  1  0  0  0  0
  4 29  1  0  0  0  0
  5 30  1  0  0  0  0
  8 31  1  0  0  0  0
  8 32  1  0  0  0  0
 10 33  1  0  0  0  0
 11 34  1  0  0  0  0
 14 35  1  0  0  0  0
 15 36  1  0  0  0  0
 18 37  1  0  0  0  0
 18 38  1  0  0  0  0
 20 39  1  0  0  0  0
 20 40  1  0  0  0  0
 21 41  1  0  0  0  0
 22 42  1  0  0  0  0
 22 43  1  0  0  0  0
 23 44  1  0  0  0  0
M  END
$$$$
