7LPQ
  PyMOL3.1          3D                             0

 44 46  0  0  0  0  0  0  0  0999 V2000
   22.8850    4.6240    5.8760 C   0  0  0  0  0  0  0  0  0  0  0  0
   22.7950    4.1880    7.3120 N   0  0  0  0  0  0  0  0  0  0  0  0
   23.7390    3.0870    7.4990 C   0  0  0  0  0  0  0  0  0  0  0  0
   23.1290    2.2080    8.6860 C   0  0  0  0  0  0  0  0  0  0  0  0
   23.1650    0.7380    8.6230 N   0  0  0  0  0  0  0  0  0  0  0  0
   24.2390   -0.0740    8.6840 C   0  0  0  0  0  0  0  0  0  0  0  0
   25.3400    0.4860    8.8040 O   0  0  0  0  0  0  0  0  0  0  0  0
   24.2380   -1.6150    8.6430 C   0  0  0  0  0  0  0  0  0  0  0  0
   24.9740   -2.3700    7.4960 C   0  0  0  0  0  0  0  0  0  0  0  0
   24.2870   -3.1320    6.5300 C   0  0  0  0  0  0  0  0  0  0  0  0
   24.9720   -3.8110    5.4960 C   0  0  0  0  0  0  0  0  0  0  0  0
   26.3830   -3.7640    5.3690 C   0  0  0  0  0  0  0  0  0  0  0  0
   27.0990   -2.9990    6.3270 C   0  0  0  0  0  0  0  0  0  0  0  0
   26.3820   -2.3290    7.3650 C   0  0  0  0  0  0  0  0  0  0  0  0
   28.5420   -2.9570    6.2130 N   0  0  0  0  0  0  0  0  0  0  0  0
   29.2290   -3.5340    5.1660 C   0  0  0  0  0  0  0  0  0  0  0  0
   30.4640   -3.4580    5.0870 O   0  0  0  0  0  0  0  0  0  0  0  0
   28.4620   -4.1060    4.0700 C   0  0  0  0  0  0  0  0  0  0  0  0
   27.0380   -4.4290    4.3810 O   0  0  0  0  0  0  0  0  0  0  0  0
   21.6690    2.7470    8.7090 C   0  0  0  0  0  0  0  0  0  0  0  0
   21.4780    3.4930    7.4580 C   0  0  0  0  0  0  0  0  0  0  0  0
   20.3140    4.4680    7.4370 C   0  0  0  0  0  0  0  0  0  0  0  0
   20.3700    5.3370    8.5610 O   0  0  0  0  0  0  0  0  0  0  0  0
   22.6030    3.9200    5.3230 H   0  0  0  0  0  0  0  0  0  0  0  0
   23.7750    4.8480    5.6790 H   0  0  0  0  0  0  0  0  0  0  0  0
   22.3320    5.3720    5.7480 H   0  0  0  0  0  0  0  0  0  0  0  0
   24.5520    3.5280    7.6610 H   0  0  0  0  0  0  0  0  0  0  0  0
   23.7810    2.6950    6.6470 H   0  0  0  0  0  0  0  0  0  0  0  0
   23.6130    2.4450    9.4540 H   0  0  0  0  0  0  0  0  0  0  0  0
   22.3400    0.4810    8.5370 H   0  0  0  0  0  0  0  0  0  0  0  0
   24.5400   -1.8670    9.4960 H   0  0  0  0  0  0  0  0  0  0  0  0
   23.3300   -1.8450    8.7050 H   0  0  0  0  0  0  0  0  0  0  0  0
   23.3610   -3.1940    6.5700 H   0  0  0  0  0  0  0  0  0  0  0  0
   24.4620   -4.2970    4.8900 H   0  0  0  0  0  0  0  0  0  0  0  0
   26.8570   -1.8360    7.9930 H   0  0  0  0  0  0  0  0  0  0  0  0
   29.0220   -2.5620    6.8070 H   0  0  0  0  0  0  0  0  0  0  0  0
   28.9970   -4.8640    3.7860 H   0  0  0  0  0  0  0  0  0  0  0  0
   28.5860   -3.4720    3.3470 H   0  0  0  0  0  0  0  0  0  0  0  0
   21.0550    2.0000    8.7910 H   0  0  0  0  0  0  0  0  0  0  0  0
   21.5480    3.3050    9.4930 H   0  0  0  0  0  0  0  0  0  0  0  0
   21.3930    3.0170    6.6170 H   0  0  0  0  0  0  0  0  0  0  0  0
   20.3960    4.9240    6.5850 H   0  0  0  0  0  0  0  0  0  0  0  0
   19.5260    3.9030    7.4170 H   0  0  0  0  0  0  0  0  0  0  0  0
   20.3940    6.1450    8.2870 H   0  0  0  0  0  0  0  0  0  0  0  0
  1  2  1  0  0  0  0
  2  3  1  0  0  0  0
  3  4  1  0  0  0  0
  4  5  1  0  0  0  0
  5  6  1  0  0  0  0
  6  7  2  0  0  0  0
  6  8  1  0  0  0  0
  8  9  1  0  0  0  0
  9 10  2  0  0  0  0
 10 11  1  0  0  0  0
 11 12  2  0  0  0  0
 12 13  1  0  0  0  0
  9 14  1  0  0  0  0
 13 14  2  0  0  0  0
 13 15  1  0  0  0  0
 15 16  1  0  0  0  0
 16 17  2  0  0  0  0
 16 18  1  0  0  0  0
 12 19  1  0  0  0  0
 18 19  1  0  0  0  0
  4 20  1  0  0  0  0
  2 21  1  0  0  0  0
 20 21  1  0  0  0  0
 21 22  1  0  0  0  0
 22 23  1  0  0  0  0
  1 24  1  0  0  0  0
  1 25  1  0  0  0  0
  1 26  1  0  0  0  0
  3 27  1  0  0  0  0
  3 28  1  0  0  0  0
  4 29  1  0  0  0  0
  5 30  1  0  0  0  0
  8 31  1  0  0  0  0
  8 32  1  0  0  0  0
 10 33  1  0  0  0  0
 11 34  1  0  0  0  0
 14 35  1  0  0  0  0
 15 36  1  0  0  0  0
 18 37  1  0  0  0  0
 18 38  1  0  0  0  0
 20 39  1  0  0  0  0
 20 40  1  0  0  0  0
 21 41  1  0  0  0  0
 22 42  1  0  0  0  0
 22 43  1  0  0  0  0
 23 44  1  0  0  0  0
M  END
$$$$
