6UZ8
  PyMOL3.1          3D                             0

 27 31  0  0  0  0  0  0  0  0999 V2000
  141.0210  162.2620  131.5620 Cl  0  0  0  0  0  0  0  0  0  0  0  0
  141.3620  161.0120  130.4250 C   0  0  0  0  0  0  0  0  0  0  0  0
  140.4490  160.8010  129.4150 C   0  0  0  0  0  0  0  0  0  0  0  0
  140.6990  159.7990  128.4850 C   0  0  0  0  0  0  0  0  0  0  0  0
  141.8690  159.0510  128.6190 C   0  0  0  0  0  0  0  0  0  0  0  0
  142.3120  158.0230  127.8230 N   0  0  0  0  0  0  0  0  0  0  0  0
  143.5000  157.3830  128.4020 C   0  0  0  0  0  0  0  0  0  0  0  0
  143.9720  158.3240  129.5550 C   0  0  0  0  0  0  0  0  0  0  0  0
  144.1920  157.5300  130.8450 C   0  0  0  0  0  0  0  0  0  0  0  0
  145.5400  156.7790  130.9390 C   0  0  0  0  0  0  0  0  0  0  0  0
  146.7100  157.6560  130.6620 N   0  0  0  0  0  0  0  0  0  0  0  0
  147.7970  157.8240  131.5390 C   0  0  0  0  0  0  0  0  0  0  0  0
  147.8820  157.0840  132.8970 C   0  0  0  0  0  0  0  0  0  0  0  0
  149.2750  157.2520  133.5370 C   0  0  0  0  0  0  0  0  0  0  0  0
  149.3540  156.4720  134.7280 O   0  0  0  0  0  0  0  0  0  0  0  0
  148.2590  156.5360  135.5560 C   0  0  0  0  0  0  0  0  0  0  0  0
  148.4040  155.9990  136.8290 C   0  0  0  0  0  0  0  0  0  0  0  0
  147.3200  156.0400  137.6920 C   0  0  0  0  0  0  0  0  0  0  0  0
  146.1200  156.6140  137.2710 C   0  0  0  0  0  0  0  0  0  0  0  0
  145.9840  157.1510  135.9920 C   0  0  0  0  0  0  0  0  0  0  0  0
  147.0690  157.1140  135.1110 C   0  0  0  0  0  0  0  0  0  0  0  0
  146.9460  157.6420  133.8360 O   0  0  0  0  0  0  0  0  0  0  0  0
  148.7040  158.5700  131.2150 O   0  0  0  0  0  0  0  0  0  0  0  0
  146.5750  158.3320  129.3660 C   0  0  0  0  0  0  0  0  0  0  0  0
  145.2450  159.0930  129.2240 C   0  0  0  0  0  0  0  0  0  0  0  0
  142.7980  159.2780  129.6640 C   0  0  0  0  0  0  0  0  0  0  0  0
  142.5360  160.2750  130.5740 C   0  0  0  0  0  0  0  0  0  0  0  0
  1  2  1  0  0  0  0
  2  3  2  0  0  0  0
  3  4  1  0  0  0  0
  4  5  2  0  0  0  0
  5  6  1  0  0  0  0
  6  7  2  0  0  0  0
  7  8  1  0  0  0  0
  8  9  1  0  0  0  0
  9 10  1  0  0  0  0
 10 11  1  0  0  0  0
 11 12  1  0  0  0  0
 12 13  1  0  0  0  0
 13 14  1  0  0  0  0
 14 15  1  0  0  0  0
 15 16  1  0  0  0  0
 16 17  1  0  0  0  0
 17 18  2  0  0  0  0
 18 19  1  0  0  0  0
 19 20  2  0  0  0  0
 16 21  2  0  0  0  0
 20 21  1  0  0  0  0
 13 22  1  0  0  0  0
 21 22  1  0  0  0  0
 12 23  2  0  0  0  0
 11 24  1  0  0  0  0
  8 25  1  0  0  0  0
 24 25  1  0  0  0  0
  5 26  1  0  0  0  0
  8 26  1  0  0  0  0
  2 27  1  0  0  0  0
 26 27  2  0  0  0  0
M  END
$$$$
