6UZ8
  PyMOL3.1          3D                             0

 27 31  0  0  0  0  0  0  0  0999 V2000
  167.2120  141.0210  131.5600 Cl  0  0  0  0  0  0  0  0  0  0  0  0
  168.4610  141.3620  130.4240 C   0  0  0  0  0  0  0  0  0  0  0  0
  168.6730  140.4500  129.4140 C   0  0  0  0  0  0  0  0  0  0  0  0
  169.6750  140.7000  128.4840 C   0  0  0  0  0  0  0  0  0  0  0  0
  170.4220  141.8700  128.6180 C   0  0  0  0  0  0  0  0  0  0  0  0
  171.4510  142.3130  127.8220 N   0  0  0  0  0  0  0  0  0  0  0  0
  172.0900  143.5010  128.4010 C   0  0  0  0  0  0  0  0  0  0  0  0
  171.1490  143.9730  129.5540 C   0  0  0  0  0  0  0  0  0  0  0  0
  171.9430  144.1930  130.8440 C   0  0  0  0  0  0  0  0  0  0  0  0
  172.6940  145.5410  130.9380 C   0  0  0  0  0  0  0  0  0  0  0  0
  171.8170  146.7110  130.6610 N   0  0  0  0  0  0  0  0  0  0  0  0
  171.6490  147.7970  131.5390 C   0  0  0  0  0  0  0  0  0  0  0  0
  172.3880  147.8820  132.8970 C   0  0  0  0  0  0  0  0  0  0  0  0
  172.2200  149.2750  133.5370 C   0  0  0  0  0  0  0  0  0  0  0  0
  173.0000  149.3540  134.7280 O   0  0  0  0  0  0  0  0  0  0  0  0
  172.9360  148.2590  135.5560 C   0  0  0  0  0  0  0  0  0  0  0  0
  173.4730  148.4040  136.8290 C   0  0  0  0  0  0  0  0  0  0  0  0
  173.4330  147.3200  137.6910 C   0  0  0  0  0  0  0  0  0  0  0  0
  172.8590  146.1200  137.2700 C   0  0  0  0  0  0  0  0  0  0  0  0
  172.3220  145.9840  135.9910 C   0  0  0  0  0  0  0  0  0  0  0  0
  172.3580  147.0690  135.1100 C   0  0  0  0  0  0  0  0  0  0  0  0
  171.8300  146.9460  133.8350 O   0  0  0  0  0  0  0  0  0  0  0  0
  170.9030  148.7040  131.2150 O   0  0  0  0  0  0  0  0  0  0  0  0
  171.1410  146.5760  129.3650 C   0  0  0  0  0  0  0  0  0  0  0  0
  170.3800  145.2460  129.2230 C   0  0  0  0  0  0  0  0  0  0  0  0
  170.1950  142.7990  129.6630 C   0  0  0  0  0  0  0  0  0  0  0  0
  169.1980  142.5360  130.5730 C   0  0  0  0  0  0  0  0  0  0  0  0
  1  2  1  0  0  0  0
  2  3  2  0  0  0  0
  3  4  1  0  0  0  0
  4  5  2  0  0  0  0
  5  6  1  0  0  0  0
  6  7  2  0  0  0  0
  7  8  1  0  0  0  0
  8  9  1  0  0  0  0
  9 10  1  0  0  0  0
 10 11  1  0  0  0  0
 11 12  1  0  0  0  0
 12 13  1  0  0  0  0
 13 14  1  0  0  0  0
 14 15  1  0  0  0  0
 15 16  1  0  0  0  0
 16 17  1  0  0  0  0
 17 18  2  0  0  0  0
 18 19  1  0  0  0  0
 19 20  2  0  0  0  0
 16 21  2  0  0  0  0
 20 21  1  0  0  0  0
 13 22  1  0  0  0  0
 21 22  1  0  0  0  0
 12 23  2  0  0  0  0
 11 24  1  0  0  0  0
  8 25  1  0  0  0  0
 24 25  1  0  0  0  0
  5 26  1  0  0  0  0
  8 26  1  0  0  0  0
  2 27  1  0  0  0  0
 26 27  2  0  0  0  0
M  END
$$$$
