8IRT
  PyMOL3.1          3D                             0

 47 49  0  0  0  0  0  0  0  0999 V2000
  104.5800  127.8390  117.8750 C   0  0  0  0  0  0  0  0  0  0  0  0
  107.4210  128.6150  120.4870 N   0  0  0  0  0  0  0  0  0  0  0  0
  113.3540  130.0600  117.7940 O   0  0  0  0  0  0  0  0  0  0  0  0
  105.1200  128.8540  123.9890 S   0  0  0  0  0  0  0  0  0  0  0  0
  105.9800  127.6390  118.4920 C   0  0  0  0  0  0  0  0  0  0  0  0
  106.1490  128.6210  119.6430 C   0  0  0  0  0  0  0  0  0  0  0  0
  107.1290  129.7530  121.4760 C   0  0  0  0  0  0  0  0  0  0  0  0
  107.6930  129.6120  122.9010 C   0  0  0  0  0  0  0  0  0  0  0  0
  106.5720  129.8000  123.8720 C   0  0  0  0  0  0  0  0  0  0  0  0
  106.5590  130.9390  124.7350 C   0  0  0  0  0  0  0  0  0  0  0  0
  105.3810  130.9920  125.4560 C   0  0  0  0  0  0  0  0  0  0  0  0
  104.5380  129.9640  125.1630 C   0  0  0  0  0  0  0  0  0  0  0  0
  108.7000  128.8130  119.6530 C   0  0  0  0  0  0  0  0  0  0  0  0
  109.8710  129.4960  120.3980 C   0  0  0  0  0  0  0  0  0  0  0  0
  110.9540  129.9350  119.4010 C   0  0  0  0  0  0  0  0  0  0  0  0
  111.3390  128.8650  118.3980 C   0  0  0  0  0  0  0  0  0  0  0  0
  110.5030  127.7480  118.1970 C   0  0  0  0  0  0  0  0  0  0  0  0
  109.2750  127.5060  119.0610 C   0  0  0  0  0  0  0  0  0  0  0  0
  110.8350  126.8040  117.2190 C   0  0  0  0  0  0  0  0  0  0  0  0
  111.9990  126.9370  116.4670 C   0  0  0  0  0  0  0  0  0  0  0  0
  112.8390  128.0290  116.6810 C   0  0  0  0  0  0  0  0  0  0  0  0
  112.5140  128.9960  117.6350 C   0  0  0  0  0  0  0  0  0  0  0  0
  106.0470  129.8150  121.5860 H   0  0  0  0  0  0  0  0  0  0  0  0
  107.4480  130.6990  121.0390 H   0  0  0  0  0  0  0  0  0  0  0  0
  108.4710  130.3670  123.0620 H   0  0  0  0  0  0  0  0  0  0  0  0
  108.1830  128.6460  123.0720 H   0  0  0  0  0  0  0  0  0  0  0  0
  107.3510  131.6760  124.8000 H   0  0  0  0  0  0  0  0  0  0  0  0
  105.1580  131.7770  126.1680 H   0  0  0  0  0  0  0  0  0  0  0  0
  108.4260  129.4510  118.8120 H   0  0  0  0  0  0  0  0  0  0  0  0
  109.5570  126.8370  119.8820 H   0  0  0  0  0  0  0  0  0  0  0  0
  108.5230  126.9530  118.4870 H   0  0  0  0  0  0  0  0  0  0  0  0
  112.2450  126.1980  115.7110 H   0  0  0  0  0  0  0  0  0  0  0  0
  104.3490  127.0660  117.1360 H   0  0  0  0  0  0  0  0  0  0  0  0
  104.5010  128.8160  117.3900 H   0  0  0  0  0  0  0  0  0  0  0  0
  103.8050  127.7800  118.6460 H   0  0  0  0  0  0  0  0  0  0  0  0
  112.8570  130.8250  118.1270 H   0  0  0  0  0  0  0  0  0  0  0  0
  106.7420  127.8210  117.7250 H   0  0  0  0  0  0  0  0  0  0  0  0
  106.0910  126.6140  118.8620 H   0  0  0  0  0  0  0  0  0  0  0  0
  105.3300  128.4320  120.3360 H   0  0  0  0  0  0  0  0  0  0  0  0
  106.0150  129.6280  119.2490 H   0  0  0  0  0  0  0  0  0  0  0  0
  103.5600  129.8310  125.6160 H   0  0  0  0  0  0  0  0  0  0  0  0
  109.5530  130.3960  120.9370 H   0  0  0  0  0  0  0  0  0  0  0  0
  110.2950  128.8090  121.1390 H   0  0  0  0  0  0  0  0  0  0  0  0
  111.8320  130.2910  119.9530 H   0  0  0  0  0  0  0  0  0  0  0  0
  110.5670  130.7970  118.8460 H   0  0  0  0  0  0  0  0  0  0  0  0
  110.1830  125.9570  117.0350 H   0  0  0  0  0  0  0  0  0  0  0  0
  113.7360  128.1390  116.0790 H   0  0  0  0  0  0  0  0  0  0  0  0
  1  5  1  0  0  0  0
  2  6  1  0  0  0  0
  5  6  1  0  0  0  0
  2  7  1  0  0  0  0
  7  8  1  0  0  0  0
  4  9  1  0  0  0  0
  8  9  1  0  0  0  0
  9 10  2  0  0  0  0
 10 11  1  0  0  0  0
  4 12  1  0  0  0  0
 11 12  2  0  0  0  0
  2 13  1  0  0  0  0
 13 14  1  0  0  0  0
 14 15  1  0  0  0  0
 15 16  1  0  0  0  0
 16 17  1  0  0  0  0
 13 18  1  0  0  0  0
 17 18  1  0  0  0  0
 17 19  2  0  0  0  0
 19 20  1  0  0  0  0
 20 21  2  0  0  0  0
  3 22  1  0  0  0  0
 16 22  2  0  0  0  0
 21 22  1  0  0  0  0
  7 23  1  0  0  0  0
  7 24  1  0  0  0  0
  8 25  1  0  0  0  0
  8 26  1  0  0  0  0
 10 27  1  0  0  0  0
 11 28  1  0  0  0  0
 13 29  1  0  0  0  0
 18 30  1  0  0  0  0
 18 31  1  0  0  0  0
 20 32  1  0  0  0  0
  1 33  1  0  0  0  0
  1 34  1  0  0  0  0
  1 35  1  0  0  0  0
  3 36  1  0  0  0  0
  5 37  1  0  0  0  0
  5 38  1  0  0  0  0
  6 39  1  0  0  0  0
  6 40  1  0  0  0  0
 12 41  1  0  0  0  0
 14 42  1  0  0  0  0
 14 43  1  0  0  0  0
 15 44  1  0  0  0  0
 15 45  1  0  0  0  0
 19 46  1  0  0  0  0
 21 47  1  0  0  0  0
M  END
$$$$
