8SIA
  PyMOL3.1          3D                             0

 37 40  0  0  0  0  0  0  0  0999 V2000
  119.7690   93.3800  142.8730 C   0  0  0  0  0  0  0  0  0  0  0  0
  118.3740   92.7900  142.8750 C   0  0  0  0  0  0  0  0  0  0  0  0
  117.3400   93.8940  143.0490 C   0  0  0  0  0  0  0  0  0  0  0  0
  117.6620   94.7810  144.2360 C   0  0  0  0  0  0  0  0  0  0  0  0
  116.6480   95.5200  144.8350 C   0  0  0  0  0  0  0  0  0  0  0  0
  116.8960   96.2760  145.9630 C   0  0  0  0  0  0  0  0  0  0  0  0
  118.1510   96.3020  146.5080 C   0  0  0  0  0  0  0  0  0  0  0  0
  119.1710   95.5770  145.9260 C   0  0  0  0  0  0  0  0  0  0  0  0
  118.9450   94.8120  144.7870 C   0  0  0  0  0  0  0  0  0  0  0  0
  120.0650   93.9810  144.2150 C   0  0  0  0  0  0  0  0  0  0  0  0
  116.0030   93.3240  143.1890 N   0  0  0  0  0  0  0  0  0  0  0  0
  115.0000   93.5440  142.3330 C   0  0  0  0  0  0  0  0  0  0  0  0
  113.7580   93.2260  142.6320 N   0  0  0  0  0  0  0  0  0  0  0  0
  113.0370   93.5550  141.4900 C   0  0  0  0  0  0  0  0  0  0  0  0
  111.6840   93.4210  141.2070 C   0  0  0  0  0  0  0  0  0  0  0  0
  111.2230   93.8080  139.9590 C   0  0  0  0  0  0  0  0  0  0  0  0
  112.0870   94.3190  139.0070 C   0  0  0  0  0  0  0  0  0  0  0  0
  113.4360   94.4590  139.2770 C   0  0  0  0  0  0  0  0  0  0  0  0
  113.8930   94.0710  140.5240 C   0  0  0  0  0  0  0  0  0  0  0  0
  115.1480   94.0550  141.0890 N   0  0  0  0  0  0  0  0  0  0  0  0
  117.3860   94.4930  142.2850 H   0  0  0  0  0  0  0  0  0  0  0  0
  120.4200   92.6760  142.6810 H   0  0  0  0  0  0  0  0  0  0  0  0
  119.8290   94.0620  142.1760 H   0  0  0  0  0  0  0  0  0  0  0  0
  118.3070   92.1510  143.6130 H   0  0  0  0  0  0  0  0  0  0  0  0
  118.2250   92.3170  142.0340 H   0  0  0  0  0  0  0  0  0  0  0  0
  115.7430   95.5070  144.4660 H   0  0  0  0  0  0  0  0  0  0  0  0
  116.1800   96.8140  146.3450 H   0  0  0  0  0  0  0  0  0  0  0  0
  118.3240   96.8150  147.3200 H   0  0  0  0  0  0  0  0  0  0  0  0
  120.0510   95.5940  146.3460 H   0  0  0  0  0  0  0  0  0  0  0  0
  120.9010   94.4850  144.1620 H   0  0  0  0  0  0  0  0  0  0  0  0
  120.1680   93.2510  144.8480 H   0  0  0  0  0  0  0  0  0  0  0  0
  115.8390   92.7970  143.8680 H   0  0  0  0  0  0  0  0  0  0  0  0
  111.0770   93.0660  141.8850 H   0  0  0  0  0  0  0  0  0  0  0  0
  110.2770   93.7230  139.7410 H   0  0  0  0  0  0  0  0  0  0  0  0
  111.7380   94.5650  138.1300 H   0  0  0  0  0  0  0  0  0  0  0  0
  114.0450   94.8290  138.6100 H   0  0  0  0  0  0  0  0  0  0  0  0
  115.8890   94.3330  140.7070 H   0  0  0  0  0  0  0  0  0  0  0  0
  1  2  1  0  0  0  0
  2  3  1  0  0  0  0
  3  4  1  0  0  0  0
  4  5  1  0  0  0  0
  5  6  2  0  0  0  0
  6  7  1  0  0  0  0
  7  8  2  0  0  0  0
  4  9  2  0  0  0  0
  8  9  1  0  0  0  0
  1 10  1  0  0  0  0
  9 10  1  0  0  0  0
  3 11  1  0  0  0  0
 11 12  1  0  0  0  0
 12 13  2  0  0  0  0
 13 14  1  0  0  0  0
 14 15  1  0  0  0  0
 15 16  2  0  0  0  0
 16 17  1  0  0  0  0
 17 18  2  0  0  0  0
 14 19  2  0  0  0  0
 18 19  1  0  0  0  0
 12 20  1  0  0  0  0
 19 20  1  0  0  0  0
  3 21  1  0  0  0  0
  1 22  1  0  0  0  0
  1 23  1  0  0  0  0
  2 24  1  0  0  0  0
  2 25  1  0  0  0  0
  5 26  1  0  0  0  0
  6 27  1  0  0  0  0
  7 28  1  0  0  0  0
  8 29  1  0  0  0  0
 10 30  1  0  0  0  0
 10 31  1  0  0  0  0
 11 32  1  0  0  0  0
 15 33  1  0  0  0  0
 16 34  1  0  0  0  0
 17 35  1  0  0  0  0
 18 36  1  0  0  0  0
 20 37  1  0  0  0  0
M  END
$$$$
