8SIA
  PyMOL3.1          3D                             0

 37 40  0  0  0  0  0  0  0  0999 V2000
  123.1620  149.7620  142.8740 C   0  0  0  0  0  0  0  0  0  0  0  0
  124.5630  150.3400  142.8830 C   0  0  0  0  0  0  0  0  0  0  0  0
  125.5850  149.2280  143.0820 C   0  0  0  0  0  0  0  0  0  0  0  0
  125.2370  148.3580  144.2740 C   0  0  0  0  0  0  0  0  0  0  0  0
  126.2380  147.6150  144.8910 C   0  0  0  0  0  0  0  0  0  0  0  0
  125.9720  146.8760  146.0250 C   0  0  0  0  0  0  0  0  0  0  0  0
  124.7110  146.8690  146.5590 C   0  0  0  0  0  0  0  0  0  0  0  0
  123.7040  147.5980  145.9600 C   0  0  0  0  0  0  0  0  0  0  0  0
  123.9490  148.3490  144.8140 C   0  0  0  0  0  0  0  0  0  0  0  0
  122.8450  149.1870  144.2220 C   0  0  0  0  0  0  0  0  0  0  0  0
  126.9250  149.7850  143.2390 N   0  0  0  0  0  0  0  0  0  0  0  0
  127.9380  149.5510  142.3980 C   0  0  0  0  0  0  0  0  0  0  0  0
  129.1770  149.8770  142.7040 N   0  0  0  0  0  0  0  0  0  0  0  0
  129.9070  149.5410  141.5700 C   0  0  0  0  0  0  0  0  0  0  0  0
  131.2590  149.6940  141.2900 C   0  0  0  0  0  0  0  0  0  0  0  0
  131.7280  149.3140  140.0420 C   0  0  0  0  0  0  0  0  0  0  0  0
  130.8730  148.7900  139.0890 C   0  0  0  0  0  0  0  0  0  0  0  0
  129.5250  148.6310  139.3560 C   0  0  0  0  0  0  0  0  0  0  0  0
  129.0610  149.0130  140.6020 C   0  0  0  0  0  0  0  0  0  0  0  0
  127.8020  149.0270  141.1580 N   0  0  0  0  0  0  0  0  0  0  0  0
  125.5410  148.6240  142.3210 H   0  0  0  0  0  0  0  0  0  0  0  0
  122.5210  150.4680  142.6590 H   0  0  0  0  0  0  0  0  0  0  0  0
  123.1070  149.0670  142.1900 H   0  0  0  0  0  0  0  0  0  0  0  0
  124.6280  150.9890  143.6120 H   0  0  0  0  0  0  0  0  0  0  0  0
  124.7250  150.8000  142.0370 H   0  0  0  0  0  0  0  0  0  0  0  0
  127.1450  147.6150  144.5290 H   0  0  0  0  0  0  0  0  0  0  0  0
  126.6790  146.3360  146.4150 H   0  0  0  0  0  0  0  0  0  0  0  0
  124.5270  146.3670  147.3750 H   0  0  0  0  0  0  0  0  0  0  0  0
  122.8180  147.5950  146.3700 H   0  0  0  0  0  0  0  0  0  0  0  0
  122.0020  148.6940  144.1700 H   0  0  0  0  0  0  0  0  0  0  0  0
  122.7470  149.9270  144.8450 H   0  0  0  0  0  0  0  0  0  0  0  0
  127.0870  150.3130  143.9190 H   0  0  0  0  0  0  0  0  0  0  0  0
  131.8610  150.0590  141.9670 H   0  0  0  0  0  0  0  0  0  0  0  0
  132.6720  149.4140  139.8240 H   0  0  0  0  0  0  0  0  0  0  0  0
  131.2270  148.5430  138.2150 H   0  0  0  0  0  0  0  0  0  0  0  0
  128.9240  148.2550  138.6880 H   0  0  0  0  0  0  0  0  0  0  0  0
  127.0660  148.7400  140.7730 H   0  0  0  0  0  0  0  0  0  0  0  0
  1  2  1  0  0  0  0
  1 10  1  0  0  0  0
  1 22  1  0  0  0  0
  1 23  1  0  0  0  0
  2  3  1  0  0  0  0
  2 24  1  0  0  0  0
  2 25  1  0  0  0  0
  3  4  1  0  0  0  0
  3 11  1  0  0  0  0
  3 21  1  0  0  0  0
  4  9  4  0  0  0  0
  4  5  4  0  0  0  0
  5 26  1  0  0  0  0
  5  6  4  0  0  0  0
  6  7  4  0  0  0  0
  6 27  1  0  0  0  0
  7 28  1  0  0  0  0
  7  8  4  0  0  0  0
  8  9  4  0  0  0  0
  8 29  1  0  0  0  0
  9 10  1  0  0  0  0
 10 30  1  0  0  0  0
 10 31  1  0  0  0  0
 11 32  1  0  0  0  0
 11 12  1  0  0  0  0
 12 13  4  0  0  0  0
 12 20  4  0  0  0  0
 13 14  4  0  0  0  0
 14 15  4  0  0  0  0
 15 16  4  0  0  0  0
 15 33  1  0  0  0  0
 16 34  1  0  0  0  0
 16 17  4  0  0  0  0
 17 18  4  0  0  0  0
 17 35  1  0  0  0  0
 18 36  1  0  0  0  0
 14 19  4  0  0  0  0
 18 19  4  0  0  0  0
 19 20  4  0  0  0  0
 20 37  1  0  0  0  0
M  END
$$$$
