8SIA
  PyMOL3.1          3D                             0

 37 40  0  0  0  0  0  0  0  0999 V2000
  149.6650  119.7170  142.8830 C   0  0  0  0  0  0  0  0  0  0  0  0
  150.1770  118.2920  142.8680 C   0  0  0  0  0  0  0  0  0  0  0  0
  149.0480  117.3180  143.1760 C   0  0  0  0  0  0  0  0  0  0  0  0
  148.2360  117.7410  144.3870 C   0  0  0  0  0  0  0  0  0  0  0  0
  147.4430  116.8070  145.0470 C   0  0  0  0  0  0  0  0  0  0  0  0
  146.7240  117.1590  146.1730 C   0  0  0  0  0  0  0  0  0  0  0  0
  146.7890  118.4390  146.6560 C   0  0  0  0  0  0  0  0  0  0  0  0
  147.5690  119.3790  146.0140 C   0  0  0  0  0  0  0  0  0  0  0  0
  148.2990  119.0470  144.8780 C   0  0  0  0  0  0  0  0  0  0  0  0
  149.2180  120.0680  144.2610 C   0  0  0  0  0  0  0  0  0  0  0  0
  149.5830  115.9720  143.3560 N   0  0  0  0  0  0  0  0  0  0  0  0
  149.4240  114.9870  142.4650 C   0  0  0  0  0  0  0  0  0  0  0  0
  149.7590  113.7440  142.7430 N   0  0  0  0  0  0  0  0  0  0  0  0
  149.4650  113.0430  141.5800 C   0  0  0  0  0  0  0  0  0  0  0  0
  149.6100  111.6950  141.2770 C   0  0  0  0  0  0  0  0  0  0  0  0
  149.2380  111.2510  140.0180 C   0  0  0  0  0  0  0  0  0  0  0  0
  148.7300  112.1270  139.0740 C   0  0  0  0  0  0  0  0  0  0  0  0
  148.5800  113.4710  139.3640 C   0  0  0  0  0  0  0  0  0  0  0  0
  148.9530  113.9100  140.6220 C   0  0  0  0  0  0  0  0  0  0  0  0
  148.9360  115.1530  141.2140 N   0  0  0  0  0  0  0  0  0  0  0  0
  148.4080  117.3430  142.4430 H   0  0  0  0  0  0  0  0  0  0  0  0
  150.3860  120.3190  142.6110 H   0  0  0  0  0  0  0  0  0  0  0  0
  148.9220  119.8080  142.2560 H   0  0  0  0  0  0  0  0  0  0  0  0
  150.8810  118.2030  143.5420 H   0  0  0  0  0  0  0  0  0  0  0  0
  150.5550  118.0950  141.9900 H   0  0  0  0  0  0  0  0  0  0  0  0
  147.3900  115.8860  144.7280 H   0  0  0  0  0  0  0  0  0  0  0  0
  146.1500  116.5010  146.6030 H   0  0  0  0  0  0  0  0  0  0  0  0
  146.3040  118.6840  147.4680 H   0  0  0  0  0  0  0  0  0  0  0  0
  147.6140  120.2820  146.3830 H   0  0  0  0  0  0  0  0  0  0  0  0
  148.8300  120.9650  144.2620 H   0  0  0  0  0  0  0  0  0  0  0  0
  150.0030  120.0430  144.8340 H   0  0  0  0  0  0  0  0  0  0  0  0
  150.0600  115.7910  144.0710 H   0  0  0  0  0  0  0  0  0  0  0  0
  149.9640  111.0800  141.9480 H   0  0  0  0  0  0  0  0  0  0  0  0
  149.3320  110.3100  139.7850 H   0  0  0  0  0  0  0  0  0  0  0  0
  148.4910  111.7900  138.1920 H   0  0  0  0  0  0  0  0  0  0  0  0
  148.2130  114.0880  138.7030 H   0  0  0  0  0  0  0  0  0  0  0  0
  148.6550  115.8960  140.8400 H   0  0  0  0  0  0  0  0  0  0  0  0
  1  2  1  0  0  0  0
  2  3  1  0  0  0  0
  3  4  1  0  0  0  0
  4  5  1  0  0  0  0
  5  6  2  0  0  0  0
  6  7  1  0  0  0  0
  7  8  2  0  0  0  0
  4  9  2  0  0  0  0
  8  9  1  0  0  0  0
  1 10  1  0  0  0  0
  9 10  1  0  0  0  0
  3 11  1  0  0  0  0
 11 12  1  0  0  0  0
 12 13  2  0  0  0  0
 13 14  1  0  0  0  0
 14 15  1  0  0  0  0
 15 16  2  0  0  0  0
 16 17  1  0  0  0  0
 17 18  2  0  0  0  0
 14 19  2  0  0  0  0
 18 19  1  0  0  0  0
 12 20  1  0  0  0  0
 19 20  1  0  0  0  0
  3 21  1  0  0  0  0
  1 22  1  0  0  0  0
  1 23  1  0  0  0  0
  2 24  1  0  0  0  0
  2 25  1  0  0  0  0
  5 26  1  0  0  0  0
  6 27  1  0  0  0  0
  7 28  1  0  0  0  0
  8 29  1  0  0  0  0
 10 30  1  0  0  0  0
 10 31  1  0  0  0  0
 11 32  1  0  0  0  0
 15 33  1  0  0  0  0
 16 34  1  0  0  0  0
 17 35  1  0  0  0  0
 18 36  1  0  0  0  0
 20 37  1  0  0  0  0
M  END
$$$$
