9AYL
  PyMOL3.1          3D                             0

 31 34  0  0  0  0  0  0  0  0999 V2000
  133.8900  125.9670  135.5750 O   0  0  0  0  0  0  0  0  0  0  0  0
  135.7050  125.7500  136.9630 N   0  0  0  0  0  0  0  0  0  0  0  0
  135.1290  123.2930  139.5020 N   0  0  0  0  0  0  0  0  0  0  0  0
  135.9080  124.1030  138.7190 N   0  0  0  0  0  0  0  0  0  0  0  0
  137.7720  120.9750  139.7850 N   0  0  0  0  0  0  0  0  0  0  0  0
  138.4900  117.1380  136.5680 N   0  0  0  0  0  0  0  0  0  0  0  0
  132.8840  132.6210  135.2760 C   0  0  0  0  0  0  0  0  0  0  0  0
  132.3750  133.5830  134.2070 C   0  0  0  0  0  0  0  0  0  0  0  0
  133.6150  133.9430  135.0130 C   0  0  0  0  0  0  0  0  0  0  0  0
  133.5670  131.2510  135.1610 C   0  0  0  0  0  0  0  0  0  0  0  0
  131.7700  132.5970  136.3600 C   0  0  0  0  0  0  0  0  0  0  0  0
  134.7560  130.9380  136.0680 C   0  0  0  0  0  0  0  0  0  0  0  0
  133.0900  130.2270  134.1290 C   0  0  0  0  0  0  0  0  0  0  0  0
  135.4560  129.5870  135.9650 C   0  0  0  0  0  0  0  0  0  0  0  0
  133.7950  128.8760  134.0150 C   0  0  0  0  0  0  0  0  0  0  0  0
  134.9690  128.5680  134.9420 C   0  0  0  0  0  0  0  0  0  0  0  0
  135.7060  127.2350  134.8670 C   0  0  0  0  0  0  0  0  0  0  0  0
  134.9950  126.2680  135.8060 C   0  0  0  0  0  0  0  0  0  0  0  0
  135.1330  124.8030  137.9150 C   0  0  0  0  0  0  0  0  0  0  0  0
  135.6700  122.3830  140.4870 C   0  0  0  0  0  0  0  0  0  0  0  0
  133.8370  124.4410  138.1830 C   0  0  0  0  0  0  0  0  0  0  0  0
  133.8610  123.4910  139.1690 C   0  0  0  0  0  0  0  0  0  0  0  0
  136.3280  121.2730  139.6780 C   0  0  0  0  0  0  0  0  0  0  0  0
  135.4430  120.4760  138.7370 C   0  0  0  0  0  0  0  0  0  0  0  0
  136.0090  119.3820  137.9120 C   0  0  0  0  0  0  0  0  0  0  0  0
  137.4580  119.0840  138.0250 C   0  0  0  0  0  0  0  0  0  0  0  0
  138.3460  119.8840  138.9690 C   0  0  0  0  0  0  0  0  0  0  0  0
  138.0510  117.9660  137.1860 C   0  0  0  0  0  0  0  0  0  0  0  0
  132.1260  131.7940  137.4040 F   0  0  0  0  0  0  0  0  0  0  0  0
  131.4970  133.8340  136.8600 F   0  0  0  0  0  0  0  0  0  0  0  0
  130.6270  132.0960  135.8060 F   0  0  0  0  0  0  0  0  0  0  0  0
  3  4  1  0  0  0  0
  7  8  1  0  0  0  0
  7  9  1  0  0  0  0
  8  9  1  0  0  0  0
  7 10  1  0  0  0  0
  7 11  1  0  0  0  0
 10 12  2  0  0  0  0
 10 13  1  0  0  0  0
 12 14  1  0  0  0  0
 13 15  2  0  0  0  0
 14 16  2  0  0  0  0
 15 16  1  0  0  0  0
 16 17  1  0  0  0  0
  1 18  2  0  0  0  0
  2 18  1  0  0  0  0
 17 18  1  0  0  0  0
  2 19  1  0  0  0  0
  4 19  2  0  0  0  0
  3 20  1  0  0  0  0
 19 21  1  0  0  0  0
  3 22  1  0  0  0  0
 21 22  2  0  0  0  0
  5 23  1  0  0  0  0
 20 23  1  0  0  0  0
 23 24  2  0  0  0  0
 24 25  1  0  0  0  0
 25 26  2  0  0  0  0
  5 27  2  0  0  0  0
 26 27  1  0  0  0  0
  6 28  3  0  0  0  0
 26 28  1  0  0  0  0
 11 29  1  0  0  0  0
 11 30  1  0  0  0  0
 11 31  1  0  0  0  0
M  END
$$$$
