7U0M
  PyMOL3.1          3D                             0

 46 50  0  0  0  0  0  0  0  0999 V2000
  -24.6600    1.8900    9.8670 N   0  0  0  0  0  0  0  0  0  0  0  0
  -27.3100    1.4290    9.3300 C   0  0  0  0  0  0  0  0  0  0  0  0
  -28.6380    1.2350    9.0680 O   0  0  0  0  0  0  0  0  0  0  0  0
  -26.7070    2.6360    8.9810 C   0  0  0  0  0  0  0  0  0  0  0  0
  -24.4170   -0.1370   10.8180 O   0  0  0  0  0  0  0  0  0  0  0  0
  -25.3950    2.8560    9.2370 C   0  0  0  0  0  0  0  0  0  0  0  0
  -24.6390    4.0920    8.8350 C   0  0  0  0  0  0  0  0  0  0  0  0
  -23.5350    3.7710    7.8080 C   0  0  0  0  0  0  0  0  0  0  0  0
  -22.8150    5.0000    7.2870 C   0  0  0  0  0  0  0  0  0  0  0  0
  -21.6680    4.6280    6.3570 C   0  0  0  0  0  0  0  0  0  0  0  0
  -22.0870    3.7450    5.1690 C   0  0  0  0  0  0  0  0  0  0  0  0
  -20.8410    3.2270    4.4340 C   0  0  0  0  0  0  0  0  0  0  0  0
  -22.9410    4.5570    4.1850 C   0  0  0  0  0  0  0  0  0  0  0  0
  -22.9020    2.5570    5.7030 C   0  0  0  0  0  0  0  0  0  0  0  0
  -24.0420    2.9600    6.6290 C   0  0  0  0  0  0  0  0  0  0  0  0
  -26.5820    0.4390   10.0020 C   0  0  0  0  0  0  0  0  0  0  0  0
  -27.1620   -0.8900   10.3300 C   0  0  0  0  0  0  0  0  0  0  0  0
  -27.7140   -1.6740    9.3190 C   0  0  0  0  0  0  0  0  0  0  0  0
  -28.2100   -2.9420    9.5830 C   0  0  0  0  0  0  0  0  0  0  0  0
  -28.1610   -3.4460   10.8620 C   0  0  0  0  0  0  0  0  0  0  0  0
  -27.5930   -2.6990   11.8690 C   0  0  0  0  0  0  0  0  0  0  0  0
  -27.0900   -1.4330   11.6080 C   0  0  0  0  0  0  0  0  0  0  0  0
  -25.1730    0.6730   10.2570 C   0  0  0  0  0  0  0  0  0  0  0  0
  -53.5540   30.8670   10.0100 N   0  0  0  0  0  0  0  0  0  0  0  0
  -50.9150   31.3400    9.4310 C   0  0  0  0  0  0  0  0  0  0  0  0
  -49.5960   31.5490    9.1460 O   0  0  0  0  0  0  0  0  0  0  0  0
  -51.5190   30.1300    9.0870 C   0  0  0  0  0  0  0  0  0  0  0  0
  -53.7900   32.9000   10.9470 O   0  0  0  0  0  0  0  0  0  0  0  0
  -52.8240   29.9020    9.3730 C   0  0  0  0  0  0  0  0  0  0  0  0
  -53.5810   28.6630    8.9850 C   0  0  0  0  0  0  0  0  0  0  0  0
  -54.6910   28.9730    7.9600 C   0  0  0  0  0  0  0  0  0  0  0  0
  -55.4140   27.7410    7.4520 C   0  0  0  0  0  0  0  0  0  0  0  0
  -56.5790   28.1190    6.5480 C   0  0  0  0  0  0  0  0  0  0  0  0
  -56.1800   28.9880    5.3440 C   0  0  0  0  0  0  0  0  0  0  0  0
  -57.4420   29.5010    4.6330 C   0  0  0  0  0  0  0  0  0  0  0  0
  -55.3530   28.1600    4.3500 C   0  0  0  0  0  0  0  0  0  0  0  0
  -55.3440   30.1750    5.8480 C   0  0  0  0  0  0  0  0  0  0  0  0
  -54.1980   29.7760    6.7700 C   0  0  0  0  0  0  0  0  0  0  0  0
  -51.6390   32.3290   10.1060 C   0  0  0  0  0  0  0  0  0  0  0  0
  -51.0660   33.6630   10.4240 C   0  0  0  0  0  0  0  0  0  0  0  0
  -50.5480   34.4600    9.4030 C   0  0  0  0  0  0  0  0  0  0  0  0
  -50.0640   35.7320    9.6610 C   0  0  0  0  0  0  0  0  0  0  0  0
  -50.0940   36.2300   10.9420 C   0  0  0  0  0  0  0  0  0  0  0  0
  -50.6290   35.4720   11.9580 C   0  0  0  0  0  0  0  0  0  0  0  0
  -51.1190   34.2000   11.7040 C   0  0  0  0  0  0  0  0  0  0  0  0
  -53.0380   32.0870   10.3890 C   0  0  0  0  0  0  0  0  0  0  0  0
  2  3  1  0  0  0  0
  2  4  1  0  0  0  0
  1  6  1  0  0  0  0
  4  6  2  0  0  0  0
  6  7  1  0  0  0  0
  7  8  1  0  0  0  0
  8  9  1  0  0  0  0
  9 10  1  0  0  0  0
 10 11  1  0  0  0  0
 11 12  1  0  0  0  0
 11 13  1  0  0  0  0
 11 14  1  0  0  0  0
  8 15  1  0  0  0  0
 14 15  1  0  0  0  0
  2 16  2  0  0  0  0
 16 17  1  0  0  0  0
 17 18  2  0  0  0  0
 18 19  1  0  0  0  0
 19 20  2  0  0  0  0
 20 21  1  0  0  0  0
 17 22  1  0  0  0  0
 21 22  2  0  0  0  0
  1 23  1  0  0  0  0
  5 23  2  0  0  0  0
 16 23  1  0  0  0  0
 25 26  1  0  0  0  0
 25 27  1  0  0  0  0
 24 29  1  0  0  0  0
 27 29  2  0  0  0  0
 29 30  1  0  0  0  0
 30 31  1  0  0  0  0
 31 32  1  0  0  0  0
 32 33  1  0  0  0  0
 33 34  1  0  0  0  0
 34 35  1  0  0  0  0
 34 36  1  0  0  0  0
 34 37  1  0  0  0  0
 31 38  1  0  0  0  0
 37 38  1  0  0  0  0
 25 39  2  0  0  0  0
 39 40  1  0  0  0  0
 40 41  2  0  0  0  0
 41 42  1  0  0  0  0
 42 43  2  0  0  0  0
 43 44  1  0  0  0  0
 40 45  1  0  0  0  0
 44 45  2  0  0  0  0
 24 46  1  0  0  0  0
 28 46  2  0  0  0  0
 39 46  1  0  0  0  0
M  END
$$$$
