8R4Q
  PyMOL3.1          3D                             0

 36 39  0  0  0  0  0  0  0  0999 V2000
  -16.6110   37.3480  -32.1470 C   0  0  0  0  0  0  0  0  0  0  0  0
  -11.9380   35.4860  -33.8720 C   0  0  0  0  0  0  0  0  0  0  0  0
  -15.4670   44.8010  -31.0460 C   0  0  0  0  0  0  0  0  0  0  0  0
  -13.5800   43.3330  -31.1120 C   0  0  0  0  0  0  0  0  0  0  0  0
  -19.5230   45.3350  -31.5490 C   0  0  0  0  0  0  0  0  0  0  0  0
  -17.4130   44.6700  -33.2200 C   0  0  0  0  0  0  0  0  0  0  0  0
  -13.0670   39.8850  -31.9360 C   0  0  0  0  0  0  0  0  0  0  0  0
  -15.7790   40.1230  -32.4960 C   0  0  0  0  0  0  0  0  0  0  0  0
  -11.1900   36.2170  -32.7850 C   0  0  0  0  0  0  0  0  0  0  0  0
  -11.7690   37.5960  -32.6610 C   0  0  0  0  0  0  0  0  0  0  0  0
  -10.5270   30.7050  -36.2020 C   0  0  0  0  0  0  0  0  0  0  0  0
  -11.1150   33.2600  -33.5640 C   0  0  0  0  0  0  0  0  0  0  0  0
  -11.7530   34.2140  -35.7800 C   0  0  0  0  0  0  0  0  0  0  0  0
  -10.4560   32.0450  -34.2510 C   0  0  0  0  0  0  0  0  0  0  0  0
  -11.4650   32.8230  -36.3840 C   0  0  0  0  0  0  0  0  0  0  0  0
  -18.0520   45.9010  -33.3580 C   0  0  0  0  0  0  0  0  0  0  0  0
  -19.1190   46.2320  -32.5310 C   0  0  0  0  0  0  0  0  0  0  0  0
  -18.8530   44.1230  -31.3990 C   0  0  0  0  0  0  0  0  0  0  0  0
  -15.9490   45.8080  -30.7330 N   0  0  0  0  0  0  0  0  0  0  0  0
  -12.9460   42.1570  -31.3120 N   0  0  0  0  0  0  0  0  0  0  0  0
  -17.0660   42.5590  -32.1690 N   0  0  0  0  0  0  0  0  0  0  0  0
  -15.8160   37.8310  -33.2080 O   0  0  0  0  0  0  0  0  0  0  0  0
  -13.1900   37.5130  -32.6170 O   0  0  0  0  0  0  0  0  0  0  0  0
  -14.9200   43.5360  -31.3650 C   0  0  0  0  0  0  0  0  0  0  0  0
  -17.7830   43.7700  -32.2220 C   0  0  0  0  0  0  0  0  0  0  0  0
  -15.1250   38.9050  -32.6890 C   0  0  0  0  0  0  0  0  0  0  0  0
  -13.7680   38.7690  -32.4120 C   0  0  0  0  0  0  0  0  0  0  0  0
  -15.6930   42.4770  -31.8440 C   0  0  0  0  0  0  0  0  0  0  0  0
  -13.6850   41.1130  -31.7310 C   0  0  0  0  0  0  0  0  0  0  0  0
  -15.0710   41.2270  -31.9900 C   0  0  0  0  0  0  0  0  0  0  0  0
  -11.1250   34.4400  -34.4620 N   0  0  0  0  0  0  0  0  0  0  0  0
  -10.3780   32.0690  -35.7280 N   0  0  0  0  0  0  0  0  0  0  0  0
  -19.9220   47.7500  -32.7100 Cl  0  0  0  0  0  0  0  0  0  0  0  0
  -19.4010   43.0600  -30.1770 Cl  0  0  0  0  0  0  0  0  0  0  0  0
  -16.2710   46.9010  -34.4160 C   0  0  0  0  0  0  0  0  0  0  0  0
  -17.6860   46.8120  -34.3340 O   0  0  0  0  0  0  0  0  0  0  0  0
  2  9  1  0  0  0  0
  9 10  1  0  0  0  0
 12 14  1  0  0  0  0
 13 15  1  0  0  0  0
  6 16  1  0  0  0  0
  5 17  1  0  0  0  0
 16 17  2  0  0  0  0
  5 18  2  0  0  0  0
  3 19  3  0  0  0  0
  4 20  1  0  0  0  0
  1 22  1  0  0  0  0
 10 23  1  0  0  0  0
  3 24  1  0  0  0  0
  4 24  2  0  0  0  0
  6 25  2  0  0  0  0
 18 25  1  0  0  0  0
 21 25  1  0  0  0  0
  8 26  2  0  0  0  0
 22 26  1  0  0  0  0
  7 27  2  0  0  0  0
 23 27  1  0  0  0  0
 26 27  1  0  0  0  0
 21 28  1  0  0  0  0
 24 28  1  0  0  0  0
  7 29  1  0  0  0  0
 20 29  2  0  0  0  0
  8 30  1  0  0  0  0
 28 30  2  0  0  0  0
 29 30  1  0  0  0  0
  2 31  1  0  0  0  0
 12 31  1  0  0  0  0
 13 31  1  0  0  0  0
 11 32  1  0  0  0  0
 14 32  1  0  0  0  0
 15 32  1  0  0  0  0
 17 33  1  0  0  0  0
 18 34  1  0  0  0  0
 16 36  1  0  0  0  0
 35 36  1  0  0  0  0
M  END
$$$$
