8R4Q
  PyMOL3.1          3D                             0

 36 39  0  0  0  0  0  0  0  0999 V2000
   13.5040   10.8470  -82.2260 C   0  0  0  0  0  0  0  0  0  0  0  0
    9.0860   13.3510  -80.6880 C   0  0  0  0  0  0  0  0  0  0  0  0
   16.8650   15.6410  -87.1240 C   0  0  0  0  0  0  0  0  0  0  0  0
   14.5470   15.8960  -86.6140 C   0  0  0  0  0  0  0  0  0  0  0  0
   20.4640   13.8060  -86.2840 C   0  0  0  0  0  0  0  0  0  0  0  0
   18.7490   15.4990  -84.9140 C   0  0  0  0  0  0  0  0  0  0  0  0
   12.2700   14.4840  -84.2790 C   0  0  0  0  0  0  0  0  0  0  0  0
   14.6250   13.2810  -83.4340 C   0  0  0  0  0  0  0  0  0  0  0  0
    8.7560   13.7440  -82.0990 C   0  0  0  0  0  0  0  0  0  0  0  0
   10.0130   14.1920  -82.7860 C   0  0  0  0  0  0  0  0  0  0  0  0
    6.3090   13.2140  -76.0130 C   0  0  0  0  0  0  0  0  0  0  0  0
    7.7140   14.5970  -79.2150 C   0  0  0  0  0  0  0  0  0  0  0  0
    7.8760   12.0350  -79.1890 C   0  0  0  0  0  0  0  0  0  0  0  0
    7.3580   14.4520  -77.7290 C   0  0  0  0  0  0  0  0  0  0  0  0
    7.0910   12.0160  -77.8650 C   0  0  0  0  0  0  0  0  0  0  0  0
   19.9920   15.9650  -85.3460 C   0  0  0  0  0  0  0  0  0  0  0  0
   20.8610   15.1170  -86.0160 C   0  0  0  0  0  0  0  0  0  0  0  0
   19.2000   13.3670  -85.8720 C   0  0  0  0  0  0  0  0  0  0  0  0
   17.7590   15.7950  -87.8460 N   0  0  0  0  0  0  0  0  0  0  0  0
   13.3940   15.6600  -85.9620 N   0  0  0  0  0  0  0  0  0  0  0  0
   17.0330   13.8520  -84.7180 N   0  0  0  0  0  0  0  0  0  0  0  0
   13.4020   12.1520  -81.6910 O   0  0  0  0  0  0  0  0  0  0  0  0
   11.0580   13.2650  -82.5070 O   0  0  0  0  0  0  0  0  0  0  0  0
   15.7650   15.3460  -86.2750 C   0  0  0  0  0  0  0  0  0  0  0  0
   18.3140   14.2010  -85.1850 C   0  0  0  0  0  0  0  0  0  0  0  0
   13.4180   12.9950  -82.7880 C   0  0  0  0  0  0  0  0  0  0  0  0
   12.2290   13.5930  -83.1980 C   0  0  0  0  0  0  0  0  0  0  0  0
   15.8470   14.4670  -85.1920 C   0  0  0  0  0  0  0  0  0  0  0  0
   13.4470   14.7760  -84.9570 C   0  0  0  0  0  0  0  0  0  0  0  0
   14.6440   14.1460  -84.5450 C   0  0  0  0  0  0  0  0  0  0  0  0
    7.8440   13.3160  -79.9350 N   0  0  0  0  0  0  0  0  0  0  0  0
    6.4850   13.2940  -77.4570 N   0  0  0  0  0  0  0  0  0  0  0  0
   22.3960   15.7570  -86.4720 Cl  0  0  0  0  0  0  0  0  0  0  0  0
   18.7640   11.7470  -86.2110 Cl  0  0  0  0  0  0  0  0  0  0  0  0
   19.3800   18.1620  -85.2710 C   0  0  0  0  0  0  0  0  0  0  0  0
   20.4510   17.2470  -85.1050 O   0  0  0  0  0  0  0  0  0  0  0  0
  2  9  1  0  0  0  0
  9 10  1  0  0  0  0
 12 14  1  0  0  0  0
 13 15  1  0  0  0  0
  6 16  1  0  0  0  0
  5 17  1  0  0  0  0
 16 17  2  0  0  0  0
  5 18  2  0  0  0  0
  3 19  3  0  0  0  0
  4 20  1  0  0  0  0
  1 22  1  0  0  0  0
 10 23  1  0  0  0  0
  3 24  1  0  0  0  0
  4 24  2  0  0  0  0
  6 25  2  0  0  0  0
 18 25  1  0  0  0  0
 21 25  1  0  0  0  0
  8 26  2  0  0  0  0
 22 26  1  0  0  0  0
  7 27  2  0  0  0  0
 23 27  1  0  0  0  0
 26 27  1  0  0  0  0
 21 28  1  0  0  0  0
 24 28  1  0  0  0  0
  7 29  1  0  0  0  0
 20 29  2  0  0  0  0
  8 30  1  0  0  0  0
 28 30  2  0  0  0  0
 29 30  1  0  0  0  0
  2 31  1  0  0  0  0
 12 31  1  0  0  0  0
 13 31  1  0  0  0  0
 11 32  1  0  0  0  0
 14 32  1  0  0  0  0
 15 32  1  0  0  0  0
 17 33  1  0  0  0  0
 18 34  1  0  0  0  0
 16 36  1  0  0  0  0
 35 36  1  0  0  0  0
M  END
$$$$
