8R4Q
  PyMOL3.1          3D                             0

 36 39  0  0  0  0  0  0  0  0999 V2000
  -16.4380    7.4650  -89.9190 C   0  0  0  0  0  0  0  0  0  0  0  0
  -12.8750    4.1890  -87.6300 C   0  0  0  0  0  0  0  0  0  0  0  0
  -16.8250    5.0220  -97.1130 C   0  0  0  0  0  0  0  0  0  0  0  0
  -14.9020    4.4870  -95.8160 C   0  0  0  0  0  0  0  0  0  0  0  0
  -20.6150    6.6660  -97.2490 C   0  0  0  0  0  0  0  0  0  0  0  0
  -19.4760    4.4470  -96.0210 C   0  0  0  0  0  0  0  0  0  0  0  0
  -13.9990    4.7910  -92.3770 C   0  0  0  0  0  0  0  0  0  0  0  0
  -16.5990    5.7370  -92.2730 C   0  0  0  0  0  0  0  0  0  0  0  0
  -11.9060    4.3830  -88.7670 C   0  0  0  0  0  0  0  0  0  0  0  0
  -12.6750    4.3100  -90.0500 C   0  0  0  0  0  0  0  0  0  0  0  0
  -11.7250    3.5000  -82.3290 C   0  0  0  0  0  0  0  0  0  0  0  0
  -11.6290    4.8860  -85.7480 C   0  0  0  0  0  0  0  0  0  0  0  0
  -13.2390    2.9870  -85.6940 C   0  0  0  0  0  0  0  0  0  0  0  0
  -11.1080    4.5120  -84.3500 C   0  0  0  0  0  0  0  0  0  0  0  0
  -12.9180    2.7930  -84.2030 C   0  0  0  0  0  0  0  0  0  0  0  0
  -20.3850    4.2580  -97.0610 C   0  0  0  0  0  0  0  0  0  0  0  0
  -20.9640    5.3810  -97.6650 C   0  0  0  0  0  0  0  0  0  0  0  0
  -19.6780    6.8260  -96.2320 C   0  0  0  0  0  0  0  0  0  0  0  0
  -17.3260    5.1860  -98.1450 N   0  0  0  0  0  0  0  0  0  0  0  0
  -14.1670    4.4050  -94.6880 N   0  0  0  0  0  0  0  0  0  0  0  0
  -18.1530    5.8040  -94.5570 N   0  0  0  0  0  0  0  0  0  0  0  0
  -16.4050    6.0500  -89.9120 O   0  0  0  0  0  0  0  0  0  0  0  0
  -13.8110    5.1710  -89.9570 O   0  0  0  0  0  0  0  0  0  0  0  0
  -16.2070    4.9260  -95.8460 C   0  0  0  0  0  0  0  0  0  0  0  0
  -19.0890    5.7250  -95.6060 C   0  0  0  0  0  0  0  0  0  0  0  0
  -15.8360    5.6770  -91.1130 C   0  0  0  0  0  0  0  0  0  0  0  0
  -14.5320    5.1980  -91.1500 C   0  0  0  0  0  0  0  0  0  0  0  0
  -16.8200    5.3460  -94.6660 C   0  0  0  0  0  0  0  0  0  0  0  0
  -14.7280    4.8500  -93.5530 C   0  0  0  0  0  0  0  0  0  0  0  0
  -16.0450    5.3480  -93.5010 C   0  0  0  0  0  0  0  0  0  0  0  0
  -12.1880    3.7050  -86.4420 N   0  0  0  0  0  0  0  0  0  0  0  0
  -11.5880    3.2430  -83.7550 N   0  0  0  0  0  0  0  0  0  0  0  0
  -22.1130    5.2180  -98.9470 Cl  0  0  0  0  0  0  0  0  0  0  0  0
  -19.2890    8.4150  -95.7370 Cl  0  0  0  0  0  0  0  0  0  0  0  0
  -19.6260    2.1530  -97.6120 C   0  0  0  0  0  0  0  0  0  0  0  0
  -20.7620    2.9820  -97.4720 O   0  0  0  0  0  0  0  0  0  0  0  0
  2  9  1  0  0  0  0
  9 10  1  0  0  0  0
 12 14  1  0  0  0  0
 13 15  1  0  0  0  0
  6 16  1  0  0  0  0
  5 17  1  0  0  0  0
 16 17  2  0  0  0  0
  5 18  2  0  0  0  0
  3 19  3  0  0  0  0
  4 20  1  0  0  0  0
  1 22  1  0  0  0  0
 10 23  1  0  0  0  0
  3 24  1  0  0  0  0
  4 24  2  0  0  0  0
  6 25  2  0  0  0  0
 18 25  1  0  0  0  0
 21 25  1  0  0  0  0
  8 26  2  0  0  0  0
 22 26  1  0  0  0  0
  7 27  2  0  0  0  0
 23 27  1  0  0  0  0
 26 27  1  0  0  0  0
 21 28  1  0  0  0  0
 24 28  1  0  0  0  0
  7 29  1  0  0  0  0
 20 29  2  0  0  0  0
  8 30  1  0  0  0  0
 28 30  2  0  0  0  0
 29 30  1  0  0  0  0
  2 31  1  0  0  0  0
 12 31  1  0  0  0  0
 13 31  1  0  0  0  0
 11 32  1  0  0  0  0
 14 32  1  0  0  0  0
 15 32  1  0  0  0  0
 17 33  1  0  0  0  0
 18 34  1  0  0  0  0
 16 36  1  0  0  0  0
 35 36  1  0  0  0  0
M  END
$$$$
