8R4Q
  PyMOL3.1          3D                             0

 36 39  0  0  0  0  0  0  0  0999 V2000
  -50.3200   82.6430  -75.5310 C   0  0  0  0  0  0  0  0  0  0  0  0
  -55.3190   83.4450  -77.1050 C   0  0  0  0  0  0  0  0  0  0  0  0
  -47.1970   78.4220  -81.1030 C   0  0  0  0  0  0  0  0  0  0  0  0
  -49.5630   78.5030  -80.8770 C   0  0  0  0  0  0  0  0  0  0  0  0
  -43.5320   79.8700  -79.9200 C   0  0  0  0  0  0  0  0  0  0  0  0
  -45.7290   80.9460  -81.2150 C   0  0  0  0  0  0  0  0  0  0  0  0
  -51.8870   80.4120  -78.9390 C   0  0  0  0  0  0  0  0  0  0  0  0
  -49.5210   81.6280  -78.1780 C   0  0  0  0  0  0  0  0  0  0  0  0
  -55.4880   81.9860  -77.4320 C   0  0  0  0  0  0  0  0  0  0  0  0
  -54.2580   81.5210  -78.1650 C   0  0  0  0  0  0  0  0  0  0  0  0
  -59.1910   86.8840  -75.1760 C   0  0  0  0  0  0  0  0  0  0  0  0
  -57.0060   83.8220  -75.4880 C   0  0  0  0  0  0  0  0  0  0  0  0
  -56.3620   85.5040  -77.2450 C   0  0  0  0  0  0  0  0  0  0  0  0
  -57.9220   84.9080  -74.8750 C   0  0  0  0  0  0  0  0  0  0  0  0
  -57.4160   86.4780  -76.6730 C   0  0  0  0  0  0  0  0  0  0  0  0
  -44.5440   80.7460  -81.9240 C   0  0  0  0  0  0  0  0  0  0  0  0
  -43.4340   80.2160  -81.2670 C   0  0  0  0  0  0  0  0  0  0  0  0
  -44.7330   80.0440  -79.2390 C   0  0  0  0  0  0  0  0  0  0  0  0
  -46.2420   77.8870  -81.4870 N   0  0  0  0  0  0  0  0  0  0  0  0
  -50.7330   78.9530  -80.3840 N   0  0  0  0  0  0  0  0  0  0  0  0
  -47.1000   80.7910  -79.2660 N   0  0  0  0  0  0  0  0  0  0  0  0
  -50.7750   83.1400  -76.7790 O   0  0  0  0  0  0  0  0  0  0  0  0
  -53.1050   81.9560  -77.4510 O   0  0  0  0  0  0  0  0  0  0  0  0
  -48.3430   79.0480  -80.5530 C   0  0  0  0  0  0  0  0  0  0  0  0
  -45.8540   80.5750  -79.8760 C   0  0  0  0  0  0  0  0  0  0  0  0
  -50.7360   82.0670  -77.6520 C   0  0  0  0  0  0  0  0  0  0  0  0
  -51.9330   81.4690  -78.0240 C   0  0  0  0  0  0  0  0  0  0  0  0
  -48.2850   80.1150  -79.6550 C   0  0  0  0  0  0  0  0  0  0  0  0
  -50.6930   79.9430  -79.4770 C   0  0  0  0  0  0  0  0  0  0  0  0
  -49.4860   80.5430  -79.0710 C   0  0  0  0  0  0  0  0  0  0  0  0
  -56.6100   84.0810  -76.9020 N   0  0  0  0  0  0  0  0  0  0  0  0
  -58.4790   85.8410  -75.8780 N   0  0  0  0  0  0  0  0  0  0  0  0
  -41.9360   79.9640  -82.1010 Cl  0  0  0  0  0  0  0  0  0  0  0  0
  -44.7940   79.5890  -77.5900 Cl  0  0  0  0  0  0  0  0  0  0  0  0
  -45.5500   80.6820  -83.9960 C   0  0  0  0  0  0  0  0  0  0  0  0
  -44.4160   81.0970  -83.2590 O   0  0  0  0  0  0  0  0  0  0  0  0
  2  9  1  0  0  0  0
  9 10  1  0  0  0  0
 12 14  1  0  0  0  0
 13 15  1  0  0  0  0
  6 16  1  0  0  0  0
  5 17  1  0  0  0  0
 16 17  2  0  0  0  0
  5 18  2  0  0  0  0
  3 19  3  0  0  0  0
  4 20  1  0  0  0  0
  1 22  1  0  0  0  0
 10 23  1  0  0  0  0
  3 24  1  0  0  0  0
  4 24  2  0  0  0  0
  6 25  2  0  0  0  0
 18 25  1  0  0  0  0
 21 25  1  0  0  0  0
  8 26  2  0  0  0  0
 22 26  1  0  0  0  0
  7 27  2  0  0  0  0
 23 27  1  0  0  0  0
 26 27  1  0  0  0  0
 21 28  1  0  0  0  0
 24 28  1  0  0  0  0
  7 29  1  0  0  0  0
 20 29  2  0  0  0  0
  8 30  1  0  0  0  0
 28 30  2  0  0  0  0
 29 30  1  0  0  0  0
  2 31  1  0  0  0  0
 12 31  1  0  0  0  0
 13 31  1  0  0  0  0
 11 32  1  0  0  0  0
 14 32  1  0  0  0  0
 15 32  1  0  0  0  0
 17 33  1  0  0  0  0
 18 34  1  0  0  0  0
 16 36  1  0  0  0  0
 35 36  1  0  0  0  0
M  END
$$$$
