7XDG
  PyMOL3.1          3D                             0

 84 88  0  0  0  0  0  0  0  0999 V2000
  145.5590  156.5960  178.1030 O   0  0  0  0  0  0  0  0  0  0  0  0
  151.9280  157.7690  185.7150 O   0  0  0  0  0  0  0  0  0  0  0  0
  144.8780  159.1750  178.3620 O   0  0  0  0  0  0  0  0  0  0  0  0
  149.3120  156.3770  188.3540 O   0  0  0  0  0  0  0  0  0  0  0  0
  143.8380  159.4680  180.2760 O   0  0  0  0  0  0  0  0  0  0  0  0
  151.3620  156.1160  187.6530 O   0  0  0  0  0  0  0  0  0  0  0  0
  146.6690  156.6580  183.7260 C   0  0  0  0  0  0  0  0  0  0  0  0
  146.3660  156.6560  182.2230 C   0  0  0  0  0  0  0  0  0  0  0  0
  148.0780  156.9580  184.2560 C   0  0  0  0  0  0  0  0  0  0  0  0
  145.6900  157.7040  181.5750 C   0  0  0  0  0  0  0  0  0  0  0  0
  148.5040  156.5730  185.5430 C   0  0  0  0  0  0  0  0  0  0  0  0
  146.7580  155.5880  181.4130 C   0  0  0  0  0  0  0  0  0  0  0  0
  149.0180  157.6310  183.4760 C   0  0  0  0  0  0  0  0  0  0  0  0
  145.4020  157.7180  180.2080 C   0  0  0  0  0  0  0  0  0  0  0  0
  149.7760  156.8320  186.0560 C   0  0  0  0  0  0  0  0  0  0  0  0
  146.4920  155.5630  180.0440 C   0  0  0  0  0  0  0  0  0  0  0  0
  150.3040  157.9080  183.9480 C   0  0  0  0  0  0  0  0  0  0  0  0
  145.8160  156.6270  179.4440 C   0  0  0  0  0  0  0  0  0  0  0  0
  150.6800  157.5100  185.2330 C   0  0  0  0  0  0  0  0  0  0  0  0
  144.6630  158.8730  179.5260 C   0  0  0  0  0  0  0  0  0  0  0  0
  150.2070  156.3980  187.4720 C   0  0  0  0  0  0  0  0  0  0  0  0
  169.3190  158.2890  178.0970 O   0  0  0  0  0  0  0  0  0  0  0  0
  162.9430  157.1170  185.7050 O   0  0  0  0  0  0  0  0  0  0  0  0
  169.9990  155.7090  178.3580 O   0  0  0  0  0  0  0  0  0  0  0  0
  165.5580  158.5090  188.3460 O   0  0  0  0  0  0  0  0  0  0  0  0
  171.0380  155.4170  180.2730 O   0  0  0  0  0  0  0  0  0  0  0  0
  163.5080  158.7710  187.6430 O   0  0  0  0  0  0  0  0  0  0  0  0
  168.2040  158.2280  183.7200 C   0  0  0  0  0  0  0  0  0  0  0  0
  168.5080  158.2290  182.2180 C   0  0  0  0  0  0  0  0  0  0  0  0
  166.7950  157.9270  184.2490 C   0  0  0  0  0  0  0  0  0  0  0  0
  169.1850  157.1810  181.5700 C   0  0  0  0  0  0  0  0  0  0  0  0
  166.3680  158.3130  185.5360 C   0  0  0  0  0  0  0  0  0  0  0  0
  168.1170  159.2970  181.4070 C   0  0  0  0  0  0  0  0  0  0  0  0
  165.8560  157.2550  183.4680 C   0  0  0  0  0  0  0  0  0  0  0  0
  169.4740  157.1670  180.2030 C   0  0  0  0  0  0  0  0  0  0  0  0
  165.0950  158.0540  186.0480 C   0  0  0  0  0  0  0  0  0  0  0  0
  168.3840  159.3220  180.0380 C   0  0  0  0  0  0  0  0  0  0  0  0
  164.5690  156.9770  183.9390 C   0  0  0  0  0  0  0  0  0  0  0  0
  169.0610  158.2580  179.4390 C   0  0  0  0  0  0  0  0  0  0  0  0
  164.1920  157.3760  185.2240 C   0  0  0  0  0  0  0  0  0  0  0  0
  170.2140  156.0110  179.5220 C   0  0  0  0  0  0  0  0  0  0  0  0
  164.6640  158.4880  187.4630 C   0  0  0  0  0  0  0  0  0  0  0  0
  145.5600  158.2880  136.7870 O   0  0  0  0  0  0  0  0  0  0  0  0
  151.9330  157.1170  129.1770 O   0  0  0  0  0  0  0  0  0  0  0  0
  143.8400  155.4160  134.6120 O   0  0  0  0  0  0  0  0  0  0  0  0
  151.3670  158.7710  127.2390 O   0  0  0  0  0  0  0  0  0  0  0  0
  144.8790  155.7080  136.5260 O   0  0  0  0  0  0  0  0  0  0  0  0
  149.3170  158.5090  126.5370 O   0  0  0  0  0  0  0  0  0  0  0  0
  146.6720  158.2270  131.1640 C   0  0  0  0  0  0  0  0  0  0  0  0
  146.3690  158.2290  132.6660 C   0  0  0  0  0  0  0  0  0  0  0  0
  148.0820  157.9270  130.6340 C   0  0  0  0  0  0  0  0  0  0  0  0
  145.6920  157.1800  133.3140 C   0  0  0  0  0  0  0  0  0  0  0  0
  148.5080  158.3120  129.3470 C   0  0  0  0  0  0  0  0  0  0  0  0
  146.7600  159.2960  133.4770 C   0  0  0  0  0  0  0  0  0  0  0  0
  149.0210  157.2550  131.4150 C   0  0  0  0  0  0  0  0  0  0  0  0
  145.4040  157.1660  134.6810 C   0  0  0  0  0  0  0  0  0  0  0  0
  149.7810  158.0540  128.8350 C   0  0  0  0  0  0  0  0  0  0  0  0
  146.4940  159.3210  134.8460 C   0  0  0  0  0  0  0  0  0  0  0  0
  150.3070  156.9770  130.9430 C   0  0  0  0  0  0  0  0  0  0  0  0
  145.8170  158.2570  135.4450 C   0  0  0  0  0  0  0  0  0  0  0  0
  150.6840  157.3760  129.6590 C   0  0  0  0  0  0  0  0  0  0  0  0
  144.6650  156.0100  135.3620 C   0  0  0  0  0  0  0  0  0  0  0  0
  150.2120  158.4880  127.4190 C   0  0  0  0  0  0  0  0  0  0  0  0
  169.3180  156.5940  136.7820 O   0  0  0  0  0  0  0  0  0  0  0  0
  162.9430  157.7650  129.1740 O   0  0  0  0  0  0  0  0  0  0  0  0
  171.0370  159.4660  134.6070 O   0  0  0  0  0  0  0  0  0  0  0  0
  163.5080  156.1110  127.2360 O   0  0  0  0  0  0  0  0  0  0  0  0
  169.9990  159.1740  136.5220 O   0  0  0  0  0  0  0  0  0  0  0  0
  165.5580  156.3720  126.5330 O   0  0  0  0  0  0  0  0  0  0  0  0
  168.2040  156.6540  131.1600 C   0  0  0  0  0  0  0  0  0  0  0  0
  168.5080  156.6530  132.6620 C   0  0  0  0  0  0  0  0  0  0  0  0
  166.7940  156.9550  130.6310 C   0  0  0  0  0  0  0  0  0  0  0  0
  169.1850  157.7020  133.3100 C   0  0  0  0  0  0  0  0  0  0  0  0
  166.3680  156.5690  129.3440 C   0  0  0  0  0  0  0  0  0  0  0  0
  168.1170  155.5850  133.4730 C   0  0  0  0  0  0  0  0  0  0  0  0
  165.8550  157.6270  131.4120 C   0  0  0  0  0  0  0  0  0  0  0  0
  169.4740  157.7160  134.6770 C   0  0  0  0  0  0  0  0  0  0  0  0
  165.0950  156.8280  128.8320 C   0  0  0  0  0  0  0  0  0  0  0  0
  168.3840  155.5610  134.8420 C   0  0  0  0  0  0  0  0  0  0  0  0
  164.5690  157.9050  130.9400 C   0  0  0  0  0  0  0  0  0  0  0  0
  169.0600  156.6250  135.4410 C   0  0  0  0  0  0  0  0  0  0  0  0
  164.1920  157.5060  129.6560 C   0  0  0  0  0  0  0  0  0  0  0  0
  170.2130  158.8710  135.3580 C   0  0  0  0  0  0  0  0  0  0  0  0
  164.6640  156.3940  127.4160 C   0  0  0  0  0  0  0  0  0  0  0  0
  7  8  1  0  0  0  0
  7  9  1  0  0  0  0
  8 10  1  0  0  0  0
  9 11  2  0  0  0  0
  8 12  2  0  0  0  0
  9 13  1  0  0  0  0
 10 14  2  0  0  0  0
 11 15  1  0  0  0  0
 12 16  1  0  0  0  0
 13 17  2  0  0  0  0
  1 18  1  0  0  0  0
 14 18  1  0  0  0  0
 16 18  2  0  0  0  0
  2 19  1  0  0  0  0
 15 19  2  0  0  0  0
 17 19  1  0  0  0  0
  3 20  2  0  0  0  0
  5 20  1  0  0  0  0
 14 20  1  0  0  0  0
  4 21  1  0  0  0  0
  6 21  2  0  0  0  0
 15 21  1  0  0  0  0
 28 29  1  0  0  0  0
 28 30  1  0  0  0  0
 29 31  1  0  0  0  0
 30 32  2  0  0  0  0
 29 33  2  0  0  0  0
 30 34  1  0  0  0  0
 31 35  2  0  0  0  0
 32 36  1  0  0  0  0
 33 37  1  0  0  0  0
 34 38  2  0  0  0  0
 22 39  1  0  0  0  0
 35 39  1  0  0  0  0
 37 39  2  0  0  0  0
 23 40  1  0  0  0  0
 36 40  2  0  0  0  0
 38 40  1  0  0  0  0
 24 41  2  0  0  0  0
 26 41  1  0  0  0  0
 35 41  1  0  0  0  0
 25 42  1  0  0  0  0
 27 42  2  0  0  0  0
 36 42  1  0  0  0  0
 49 50  1  0  0  0  0
 49 51  1  0  0  0  0
 50 52  1  0  0  0  0
 51 53  2  0  0  0  0
 50 54  2  0  0  0  0
 51 55  1  0  0  0  0
 52 56  2  0  0  0  0
 53 57  1  0  0  0  0
 54 58  1  0  0  0  0
 55 59  2  0  0  0  0
 43 60  1  0  0  0  0
 56 60  1  0  0  0  0
 58 60  2  0  0  0  0
 44 61  1  0  0  0  0
 57 61  2  0  0  0  0
 59 61  1  0  0  0  0
 45 62  2  0  0  0  0
 47 62  1  0  0  0  0
 56 62  1  0  0  0  0
 46 63  1  0  0  0  0
 48 63  2  0  0  0  0
 57 63  1  0  0  0  0
 70 71  1  0  0  0  0
 70 72  1  0  0  0  0
 71 73  1  0  0  0  0
 72 74  2  0  0  0  0
 71 75  2  0  0  0  0
 72 76  1  0  0  0  0
 73 77  2  0  0  0  0
 74 78  1  0  0  0  0
 75 79  1  0  0  0  0
 76 80  2  0  0  0  0
 64 81  1  0  0  0  0
 77 81  1  0  0  0  0
 79 81  2  0  0  0  0
 65 82  1  0  0  0  0
 78 82  2  0  0  0  0
 80 82  1  0  0  0  0
 66 83  2  0  0  0  0
 68 83  1  0  0  0  0
 77 83  1  0  0  0  0
 67 84  1  0  0  0  0
 69 84  2  0  0  0  0
 78 84  1  0  0  0  0
M  END
$$$$
