7QNC
  PyMOL3.1          3D                             0

 20 22  0  0  0  0  0  0  0  0999 V2000
  144.1440  106.6790  105.2330 N   0  0  0  0  0  0  0  0  0  0  0  0
  145.2060  106.2100  106.1130 C   0  0  0  0  0  0  0  0  0  0  0  0
  145.5270  105.0680  106.4380 O   0  0  0  0  0  0  0  0  0  0  0  0
  145.1870  108.5140  105.9740 C   0  0  0  0  0  0  0  0  0  0  0  0
  147.0200  109.8930  106.4090 N   0  0  0  0  0  0  0  0  0  0  0  0
  144.1710  108.0800  105.1790 O   0  0  0  0  0  0  0  0  0  0  0  0
  145.8240  107.4800  106.5420 C   0  0  0  0  0  0  0  0  0  0  0  0
  146.9940  107.6510  107.4710 C   0  0  0  0  0  0  0  0  0  0  0  0
  147.3480  109.1250  107.6070 C   0  0  0  0  0  0  0  0  0  0  0  0
  145.5730  109.9340  106.2090 C   0  0  0  0  0  0  0  0  0  0  0  0
  100.9160  130.0430  109.3780 N   0  0  0  0  0  0  0  0  0  0  0  0
  101.1830  128.8720  110.2040 C   0  0  0  0  0  0  0  0  0  0  0  0
  101.1780  128.7430  111.4270 O   0  0  0  0  0  0  0  0  0  0  0  0
  101.3810  128.3760  107.9560 C   0  0  0  0  0  0  0  0  0  0  0  0
  101.3650  126.2030  107.0160 N   0  0  0  0  0  0  0  0  0  0  0  0
  101.0480  129.6940  108.0250 O   0  0  0  0  0  0  0  0  0  0  0  0
  101.4750  127.8430  109.1840 C   0  0  0  0  0  0  0  0  0  0  0  0
  101.8280  126.4010  109.4240 C   0  0  0  0  0  0  0  0  0  0  0  0
  102.2290  125.7540  108.1090 C   0  0  0  0  0  0  0  0  0  0  0  0
  101.6160  127.6080  106.6990 C   0  0  0  0  0  0  0  0  0  0  0  0
  1  2  1  0  0  0  0
  2  3  2  0  0  0  0
  1  6  1  0  0  0  0
  4  6  1  0  0  0  0
  2  7  1  0  0  0  0
  4  7  2  0  0  0  0
  7  8  1  0  0  0  0
  5  9  1  0  0  0  0
  8  9  1  0  0  0  0
  4 10  1  0  0  0  0
  5 10  1  0  0  0  0
 11 12  1  0  0  0  0
 12 13  2  0  0  0  0
 11 16  1  0  0  0  0
 14 16  1  0  0  0  0
 12 17  1  0  0  0  0
 14 17  2  0  0  0  0
 17 18  1  0  0  0  0
 15 19  1  0  0  0  0
 18 19  1  0  0  0  0
 14 20  1  0  0  0  0
 15 20  1  0  0  0  0
M  END
$$$$
