8QOJ
  PyMOL3.1          3D                             0

 42 44  0  0  0  0  0  0  0  0999 V2000
  145.0170  130.5610   96.4300 C   0  0  0  0  0  0  0  0  0  0  0  0
  146.0720  130.6400   95.5040 C   0  0  0  0  0  0  0  0  0  0  0  0
  143.7480  130.9010   96.0670 C   0  0  0  0  0  0  0  0  0  0  0  0
  142.0220  132.1220   93.0200 C   0  0  0  0  0  0  0  0  0  0  0  0
  138.3730  128.1540   95.1990 C   0  0  0  0  0  0  0  0  0  0  0  0
  139.3880  128.2840   94.0700 C   0  0  0  0  0  0  0  0  0  0  0  0
  138.9190  128.7660   96.4850 C   0  0  0  0  0  0  0  0  0  0  0  0
  139.8950  129.7170   93.9300 C   0  0  0  0  0  0  0  0  0  0  0  0
  143.1480  132.1600   92.1880 C   0  0  0  0  0  0  0  0  0  0  0  0
  142.1660  131.7130   94.3160 C   0  0  0  0  0  0  0  0  0  0  0  0
  145.8390  131.0620   94.2260 C   0  0  0  0  0  0  0  0  0  0  0  0
  143.4620  131.3420   94.7560 C   0  0  0  0  0  0  0  0  0  0  0  0
  144.5260  131.4220   93.8240 C   0  0  0  0  0  0  0  0  0  0  0  0
  140.9430  131.6670   95.2100 C   0  0  0  0  0  0  0  0  0  0  0  0
  140.3990  130.2300   95.2810 C   0  0  0  0  0  0  0  0  0  0  0  0
  142.9740  132.6170   90.7620 C   0  0  0  0  0  0  0  0  0  0  0  0
  146.9610  131.1480   93.2360 C   0  0  0  0  0  0  0  0  0  0  0  0
  144.3470  131.8320   92.5550 N   0  0  0  0  0  0  0  0  0  0  0  0
  139.3900  130.1340   96.3200 N   0  0  0  0  0  0  0  0  0  0  0  0
  139.9670  132.5820   94.7850 O   0  0  0  0  0  0  0  0  0  0  0  0
  144.1230  132.9410   90.1880 F   0  0  0  0  0  0  0  0  0  0  0  0
  142.3970  131.6650   90.0180 F   0  0  0  0  0  0  0  0  0  0  0  0
  142.1720  133.6880   90.7050 F   0  0  0  0  0  0  0  0  0  0  0  0
  146.7260  130.3900   92.1580 F   0  0  0  0  0  0  0  0  0  0  0  0
  148.1190  130.7230   93.7490 F   0  0  0  0  0  0  0  0  0  0  0  0
  147.1540  132.3900   92.7840 F   0  0  0  0  0  0  0  0  0  0  0  0
  146.9260  130.4010   95.7830 H   0  0  0  0  0  0  0  0  0  0  0  0
  145.1930  130.2710   97.2960 H   0  0  0  0  0  0  0  0  0  0  0  0
  143.0690  130.8380   96.6990 H   0  0  0  0  0  0  0  0  0  0  0  0
  141.1910  132.3730   92.6870 H   0  0  0  0  0  0  0  0  0  0  0  0
  141.1830  131.9540   96.1040 H   0  0  0  0  0  0  0  0  0  0  0  0
  139.3370  132.6160   95.3540 H   0  0  0  0  0  0  0  0  0  0  0  0
  141.1330  129.6610   95.5630 H   0  0  0  0  0  0  0  0  0  0  0  0
  140.6180  129.7460   93.2850 H   0  0  0  0  0  0  0  0  0  0  0  0
  139.1850  130.2810   93.5850 H   0  0  0  0  0  0  0  0  0  0  0  0
  139.0040  127.9850   93.2300 H   0  0  0  0  0  0  0  0  0  0  0  0
  140.1410  127.6990   94.2500 H   0  0  0  0  0  0  0  0  0  0  0  0
  138.1690  127.2180   95.3520 H   0  0  0  0  0  0  0  0  0  0  0  0
  137.5380  128.5840   94.9560 H   0  0  0  0  0  0  0  0  0  0  0  0
  138.2460  128.7570   97.1830 H   0  0  0  0  0  0  0  0  0  0  0  0
  139.6620  128.2320   96.8070 H   0  0  0  0  0  0  0  0  0  0  0  0
  139.7420  130.3970   97.0940 H   0  0  0  0  0  0  0  0  0  0  0  0
  1  2  1  0  0  0  0
  1  3  2  0  0  0  0
  5  6  1  0  0  0  0
  5  7  1  0  0  0  0
  6  8  1  0  0  0  0
  4  9  2  0  0  0  0
  4 10  1  0  0  0  0
  2 11  2  0  0  0  0
  3 12  1  0  0  0  0
 10 12  2  0  0  0  0
 11 13  1  0  0  0  0
 12 13  1  0  0  0  0
 10 14  1  0  0  0  0
  8 15  1  0  0  0  0
 14 15  1  0  0  0  0
  9 16  1  0  0  0  0
 11 17  1  0  0  0  0
  9 18  1  0  0  0  0
 13 18  2  0  0  0  0
  7 19  1  0  0  0  0
 15 19  1  0  0  0  0
 14 20  1  0  0  0  0
 16 21  1  0  0  0  0
 16 22  1  0  0  0  0
 16 23  1  0  0  0  0
 17 24  1  0  0  0  0
 17 25  1  0  0  0  0
 17 26  1  0  0  0  0
  2 27  1  0  0  0  0
  1 28  1  0  0  0  0
  3 29  1  0  0  0  0
  4 30  1  0  0  0  0
 14 31  1  0  0  0  0
 20 32  1  0  0  0  0
 15 33  1  0  0  0  0
  8 34  1  0  0  0  0
  8 35  1  0  0  0  0
  6 36  1  0  0  0  0
  6 37  1  0  0  0  0
  5 38  1  0  0  0  0
  5 39  1  0  0  0  0
  7 40  1  0  0  0  0
  7 41  1  0  0  0  0
 19 42  1  0  0  0  0
M  END
$$$$
