8QOJ
  PyMOL3.1          3D                             0

 42 44  0  0  0  0  0  0  0  0999 V2000
  137.2800  120.0040   96.4390 C   0  0  0  0  0  0  0  0  0  0  0  0
  137.8550  119.1150   95.5140 C   0  0  0  0  0  0  0  0  0  0  0  0
  136.9550  121.2750   96.0700 C   0  0  0  0  0  0  0  0  0  0  0  0
  137.1490  123.3560   93.0080 C   0  0  0  0  0  0  0  0  0  0  0  0
  131.9150  124.5490   95.2910 C   0  0  0  0  0  0  0  0  0  0  0  0
  132.5150  123.7270   94.1570 C   0  0  0  0  0  0  0  0  0  0  0  0
  132.7540  124.4100   96.5580 C   0  0  0  0  0  0  0  0  0  0  0  0
  134.0030  124.0170   93.9770 C   0  0  0  0  0  0  0  0  0  0  0  0
  137.7230  122.3860   92.1770 C   0  0  0  0  0  0  0  0  0  0  0  0
  136.8750  123.0400   94.3090 C   0  0  0  0  0  0  0  0  0  0  0  0
  138.0970  119.5150   94.2310 C   0  0  0  0  0  0  0  0  0  0  0  0
  137.1870  121.7300   94.7540 C   0  0  0  0  0  0  0  0  0  0  0  0
  137.7670  120.8340   93.8230 C   0  0  0  0  0  0  0  0  0  0  0  0
  136.2470  124.0900   95.2040 C   0  0  0  0  0  0  0  0  0  0  0  0
  134.7310  123.8500   95.3120 C   0  0  0  0  0  0  0  0  0  0  0  0
  138.0230  122.7520   90.7460 C   0  0  0  0  0  0  0  0  0  0  0  0
  138.7100  118.5720   93.2400 C   0  0  0  0  0  0  0  0  0  0  0  0
  138.0250  121.1820   92.5500 N   0  0  0  0  0  0  0  0  0  0  0  0
  134.1680  124.6910   96.3530 N   0  0  0  0  0  0  0  0  0  0  0  0
  136.5460  125.3860   94.7560 O   0  0  0  0  0  0  0  0  0  0  0  0
  138.8370  121.8850   90.1610 F   0  0  0  0  0  0  0  0  0  0  0  0
  136.9000  122.8130   90.0200 F   0  0  0  0  0  0  0  0  0  0  0  0
  138.5940  123.9610   90.6770 F   0  0  0  0  0  0  0  0  0  0  0  0
  137.9140  118.3810   92.1810 F   0  0  0  0  0  0  0  0  0  0  0  0
  138.9320  117.3630   93.7670 F   0  0  0  0  0  0  0  0  0  0  0  0
  139.8740  119.0170   92.7580 F   0  0  0  0  0  0  0  0  0  0  0  0
  138.0650  118.2550   95.7960 H   0  0  0  0  0  0  0  0  0  0  0  0
  137.1210  119.7140   97.3090 H   0  0  0  0  0  0  0  0  0  0  0  0
  136.5750  121.8400   96.7030 H   0  0  0  0  0  0  0  0  0  0  0  0
  136.9590  124.2020   92.6710 H   0  0  0  0  0  0  0  0  0  0  0  0
  136.6360  124.0350   96.0900 H   0  0  0  0  0  0  0  0  0  0  0  0
  136.4500  125.9380   95.3950 H   0  0  0  0  0  0  0  0  0  0  0  0
  134.6090  122.9340   95.6080 H   0  0  0  0  0  0  0  0  0  0  0  0
  134.3810  123.4060   93.3260 H   0  0  0  0  0  0  0  0  0  0  0  0
  134.1200  124.9130   93.6240 H   0  0  0  0  0  0  0  0  0  0  0  0
  132.3790  122.7790   94.3130 H   0  0  0  0  0  0  0  0  0  0  0  0
  132.0520  123.9360   93.3310 H   0  0  0  0  0  0  0  0  0  0  0  0
  131.0110  124.2480   95.4720 H   0  0  0  0  0  0  0  0  0  0  0  0
  131.8500  125.4820   95.0360 H   0  0  0  0  0  0  0  0  0  0  0  0
  132.6720  123.5170   96.9260 H   0  0  0  0  0  0  0  0  0  0  0  0
  132.4230  125.0220   97.2340 H   0  0  0  0  0  0  0  0  0  0  0  0
  134.5920  124.5310   97.1190 H   0  0  0  0  0  0  0  0  0  0  0  0
  1  2  1  0  0  0  0
  1  3  2  0  0  0  0
  5  6  1  0  0  0  0
  5  7  1  0  0  0  0
  6  8  1  0  0  0  0
  4  9  2  0  0  0  0
  4 10  1  0  0  0  0
  2 11  2  0  0  0  0
  3 12  1  0  0  0  0
 10 12  2  0  0  0  0
 11 13  1  0  0  0  0
 12 13  1  0  0  0  0
 10 14  1  0  0  0  0
  8 15  1  0  0  0  0
 14 15  1  0  0  0  0
  9 16  1  0  0  0  0
 11 17  1  0  0  0  0
  9 18  1  0  0  0  0
 13 18  2  0  0  0  0
  7 19  1  0  0  0  0
 15 19  1  0  0  0  0
 14 20  1  0  0  0  0
 16 21  1  0  0  0  0
 16 22  1  0  0  0  0
 16 23  1  0  0  0  0
 17 24  1  0  0  0  0
 17 25  1  0  0  0  0
 17 26  1  0  0  0  0
  2 27  1  0  0  0  0
  1 28  1  0  0  0  0
  3 29  1  0  0  0  0
  4 30  1  0  0  0  0
 14 31  1  0  0  0  0
 20 32  1  0  0  0  0
 15 33  1  0  0  0  0
  8 34  1  0  0  0  0
  8 35  1  0  0  0  0
  6 36  1  0  0  0  0
  6 37  1  0  0  0  0
  5 38  1  0  0  0  0
  5 39  1  0  0  0  0
  7 40  1  0  0  0  0
  7 41  1  0  0  0  0
 19 42  1  0  0  0  0
M  END
$$$$
