8QOJ
  PyMOL3.1          3D                             0

 42 44  0  0  0  0  0  0  0  0999 V2000
  145.0950  133.4480  167.7300 C   0  0  0  0  0  0  0  0  0  0  0  0
  146.1450  133.3260  168.6560 C   0  0  0  0  0  0  0  0  0  0  0  0
  143.8190  133.1240  168.0820 C   0  0  0  0  0  0  0  0  0  0  0  0
  142.0650  131.8590  171.0960 C   0  0  0  0  0  0  0  0  0  0  0  0
  138.4060  135.8840  169.1860 C   0  0  0  0  0  0  0  0  0  0  0  0
  139.4280  135.6820  170.2970 C   0  0  0  0  0  0  0  0  0  0  0  0
  138.9460  135.3610  167.8590 C   0  0  0  0  0  0  0  0  0  0  0  0
  139.9380  134.2440  170.3350 C   0  0  0  0  0  0  0  0  0  0  0  0
  143.1870  131.7800  171.9290 C   0  0  0  0  0  0  0  0  0  0  0  0
  142.2170  132.2980  169.8100 C   0  0  0  0  0  0  0  0  0  0  0  0
  145.9020  132.8770  169.9220 C   0  0  0  0  0  0  0  0  0  0  0  0
  143.5210  132.6560  169.3810 C   0  0  0  0  0  0  0  0  0  0  0  0
  144.5810  132.5320  170.3130 C   0  0  0  0  0  0  0  0  0  0  0  0
  140.9940  132.3900  168.9200 C   0  0  0  0  0  0  0  0  0  0  0  0
  140.4380  133.8250  168.9500 C   0  0  0  0  0  0  0  0  0  0  0  0
  142.9990  131.2900  173.3410 C   0  0  0  0  0  0  0  0  0  0  0  0
  147.0190  132.7440  170.9110 C   0  0  0  0  0  0  0  0  0  0  0  0
  144.3920  132.0930  171.5700 N   0  0  0  0  0  0  0  0  0  0  0  0
  139.4210  133.9860  167.9270 N   0  0  0  0  0  0  0  0  0  0  0  0
  140.0280  131.4370  169.2770 O   0  0  0  0  0  0  0  0  0  0  0  0
  144.1270  130.8610  173.8870 F   0  0  0  0  0  0  0  0  0  0  0  0
  142.5060  132.2580  174.1240 F   0  0  0  0  0  0  0  0  0  0  0  0
  142.1180  130.2820  173.3760 F   0  0  0  0  0  0  0  0  0  0  0  0
  146.7970  133.4840  172.0050 F   0  0  0  0  0  0  0  0  0  0  0  0
  148.1870  133.1570  170.4090 F   0  0  0  0  0  0  0  0  0  0  0  0
  147.1850  131.4890  171.3360 F   0  0  0  0  0  0  0  0  0  0  0  0
  147.0050  133.5560  168.3850 H   0  0  0  0  0  0  0  0  0  0  0  0
  145.2790  133.7570  166.8720 H   0  0  0  0  0  0  0  0  0  0  0  0
  143.1430  133.2170  167.4500 H   0  0  0  0  0  0  0  0  0  0  0  0
  141.2280  131.6170  171.4220 H   0  0  0  0  0  0  0  0  0  0  0  0
  141.2380  132.1690  168.0070 H   0  0  0  0  0  0  0  0  0  0  0  0
  139.2750  131.8170  169.3800 H   0  0  0  0  0  0  0  0  0  0  0  0
  141.1660  134.4160  168.7030 H   0  0  0  0  0  0  0  0  0  0  0  0
  140.6640  134.1750  170.9740 H   0  0  0  0  0  0  0  0  0  0  0  0
  139.2320  133.6560  170.6450 H   0  0  0  0  0  0  0  0  0  0  0  0
  140.1730  136.2950  170.1930 H   0  0  0  0  0  0  0  0  0  0  0  0
  139.0180  135.8920  171.1510 H   0  0  0  0  0  0  0  0  0  0  0  0
  138.2000  136.8270  169.0980 H   0  0  0  0  0  0  0  0  0  0  0  0
  137.5740  135.4380  169.4060 H   0  0  0  0  0  0  0  0  0  0  0  0
  139.6730  135.9190  167.5410 H   0  0  0  0  0  0  0  0  0  0  0  0
  138.2480  135.4030  167.1870 H   0  0  0  0  0  0  0  0  0  0  0  0
  139.7680  133.7770  167.1350 H   0  0  0  0  0  0  0  0  0  0  0  0
  1  2  1  0  0  0  0
  1  3  2  0  0  0  0
  5  6  1  0  0  0  0
  5  7  1  0  0  0  0
  6  8  1  0  0  0  0
  4  9  2  0  0  0  0
  4 10  1  0  0  0  0
  2 11  2  0  0  0  0
  3 12  1  0  0  0  0
 10 12  2  0  0  0  0
 11 13  1  0  0  0  0
 12 13  1  0  0  0  0
 10 14  1  0  0  0  0
  8 15  1  0  0  0  0
 14 15  1  0  0  0  0
  9 16  1  0  0  0  0
 11 17  1  0  0  0  0
  9 18  1  0  0  0  0
 13 18  2  0  0  0  0
  7 19  1  0  0  0  0
 15 19  1  0  0  0  0
 14 20  1  0  0  0  0
 16 21  1  0  0  0  0
 16 22  1  0  0  0  0
 16 23  1  0  0  0  0
 17 24  1  0  0  0  0
 17 25  1  0  0  0  0
 17 26  1  0  0  0  0
  2 27  1  0  0  0  0
  1 28  1  0  0  0  0
  3 29  1  0  0  0  0
  4 30  1  0  0  0  0
 14 31  1  0  0  0  0
 20 32  1  0  0  0  0
 15 33  1  0  0  0  0
  8 34  1  0  0  0  0
  8 35  1  0  0  0  0
  6 36  1  0  0  0  0
  6 37  1  0  0  0  0
  5 38  1  0  0  0  0
  5 39  1  0  0  0  0
  7 40  1  0  0  0  0
  7 41  1  0  0  0  0
 19 42  1  0  0  0  0
M  END
$$$$
