8QOJ
  PyMOL3.1          3D                             0

 42 44  0  0  0  0  0  0  0  0999 V2000
  137.2700  143.9760  167.5760 C   0  0  0  0  0  0  0  0  0  0  0  0
  137.8580  144.8560  168.5020 C   0  0  0  0  0  0  0  0  0  0  0  0
  136.9340  142.7070  167.9410 C   0  0  0  0  0  0  0  0  0  0  0  0
  137.1240  140.6120  170.9940 C   0  0  0  0  0  0  0  0  0  0  0  0
  131.8770  139.4170  168.7910 C   0  0  0  0  0  0  0  0  0  0  0  0
  132.4880  140.2470  169.9140 C   0  0  0  0  0  0  0  0  0  0  0  0
  132.6870  139.5720  167.5080 C   0  0  0  0  0  0  0  0  0  0  0  0
  133.9820  139.9710  170.0660 C   0  0  0  0  0  0  0  0  0  0  0  0
  137.7120  141.5730  171.8260 C   0  0  0  0  0  0  0  0  0  0  0  0
  136.8460  140.9360  169.6960 C   0  0  0  0  0  0  0  0  0  0  0  0
  138.1040  144.4480  169.7820 C   0  0  0  0  0  0  0  0  0  0  0  0
  137.1690  142.2450  169.2540 C   0  0  0  0  0  0  0  0  0  0  0  0
  137.7630  143.1310  170.1860 C   0  0  0  0  0  0  0  0  0  0  0  0
  136.2030  139.8950  168.8020 C   0  0  0  0  0  0  0  0  0  0  0  0
  134.6870  140.1390  168.7180 C   0  0  0  0  0  0  0  0  0  0  0  0
  138.0160  141.2000  173.2540 C   0  0  0  0  0  0  0  0  0  0  0  0
  138.7300  145.3810  170.7740 C   0  0  0  0  0  0  0  0  0  0  0  0
  138.0230  142.7760  171.4570 N   0  0  0  0  0  0  0  0  0  0  0  0
  134.1070  139.3010  167.6840 N   0  0  0  0  0  0  0  0  0  0  0  0
  136.5050  138.5960  169.2360 O   0  0  0  0  0  0  0  0  0  0  0  0
  138.8280  142.0650  173.8430 F   0  0  0  0  0  0  0  0  0  0  0  0
  136.8950  141.1280  173.9830 F   0  0  0  0  0  0  0  0  0  0  0  0
  138.5920  139.9920  173.3130 F   0  0  0  0  0  0  0  0  0  0  0  0
  137.9270  145.5970  171.8230 F   0  0  0  0  0  0  0  0  0  0  0  0
  138.9860  146.5820  170.2440 F   0  0  0  0  0  0  0  0  0  0  0  0
  139.8760  144.9130  171.2740 F   0  0  0  0  0  0  0  0  0  0  0  0
  138.0750  145.7150  168.2210 H   0  0  0  0  0  0  0  0  0  0  0  0
  137.1090  144.2710  166.7080 H   0  0  0  0  0  0  0  0  0  0  0  0
  136.5450  142.1480  167.3080 H   0  0  0  0  0  0  0  0  0  0  0  0
  136.9280  139.7670  171.3290 H   0  0  0  0  0  0  0  0  0  0  0  0
  136.5790  139.9560  167.9100 H   0  0  0  0  0  0  0  0  0  0  0  0
  136.1740  138.0280  168.6970 H   0  0  0  0  0  0  0  0  0  0  0  0
  134.5610  141.0560  168.4260 H   0  0  0  0  0  0  0  0  0  0  0  0
  134.3650  140.5880  170.7080 H   0  0  0  0  0  0  0  0  0  0  0  0
  134.1130  139.0770  170.4190 H   0  0  0  0  0  0  0  0  0  0  0  0
  132.0330  140.0740  170.7530 H   0  0  0  0  0  0  0  0  0  0  0  0
  132.3600  141.1890  169.7210 H   0  0  0  0  0  0  0  0  0  0  0  0
  130.9640  139.7040  168.6300 H   0  0  0  0  0  0  0  0  0  0  0  0
  131.8330  138.4820  169.0450 H   0  0  0  0  0  0  0  0  0  0  0  0
  132.3480  138.9840  166.8150 H   0  0  0  0  0  0  0  0  0  0  0  0
  132.5960  140.4780  167.1740 H   0  0  0  0  0  0  0  0  0  0  0  0
  134.5160  139.4650  166.9110 H   0  0  0  0  0  0  0  0  0  0  0  0
  1  2  1  0  0  0  0
  1  3  2  0  0  0  0
  5  6  1  0  0  0  0
  5  7  1  0  0  0  0
  6  8  1  0  0  0  0
  4  9  2  0  0  0  0
  4 10  1  0  0  0  0
  2 11  2  0  0  0  0
  3 12  1  0  0  0  0
 10 12  2  0  0  0  0
 11 13  1  0  0  0  0
 12 13  1  0  0  0  0
 10 14  1  0  0  0  0
  8 15  1  0  0  0  0
 14 15  1  0  0  0  0
  9 16  1  0  0  0  0
 11 17  1  0  0  0  0
  9 18  1  0  0  0  0
 13 18  2  0  0  0  0
  7 19  1  0  0  0  0
 15 19  1  0  0  0  0
 14 20  1  0  0  0  0
 16 21  1  0  0  0  0
 16 22  1  0  0  0  0
 16 23  1  0  0  0  0
 17 24  1  0  0  0  0
 17 25  1  0  0  0  0
 17 26  1  0  0  0  0
  2 27  1  0  0  0  0
  1 28  1  0  0  0  0
  3 29  1  0  0  0  0
  4 30  1  0  0  0  0
 14 31  1  0  0  0  0
 20 32  1  0  0  0  0
 15 33  1  0  0  0  0
  8 34  1  0  0  0  0
  8 35  1  0  0  0  0
  6 36  1  0  0  0  0
  6 37  1  0  0  0  0
  5 38  1  0  0  0  0
  5 39  1  0  0  0  0
  7 40  1  0  0  0  0
  7 41  1  0  0  0  0
 19 42  1  0  0  0  0
M  END
$$$$
