6YSN
  PyMOL3.1          3D                             0

 36 39  0  0  0  0  0  0  0  0999 V2000
  140.4210  112.5660  164.9000 Cl  0  0  0  0  0  0  0  0  0  0  0  0
  137.5760  119.0910  165.6790 O   0  0  0  0  0  0  0  0  0  0  0  0
  136.6270  119.0560  164.6440 C   0  0  0  0  0  0  0  0  0  0  0  0
  137.0320  118.7850  163.2870 C   0  0  0  0  0  0  0  0  0  0  0  0
  136.0860  118.7710  162.3510 C   0  0  0  0  0  0  0  0  0  0  0  0
  136.7070  118.4950  161.1620 N   0  0  0  0  0  0  0  0  0  0  0  0
  137.9930  118.3690  161.3880 C   0  0  0  0  0  0  0  0  0  0  0  0
  138.9920  118.0710  160.4230 O   0  0  0  0  0  0  0  0  0  0  0  0
  138.9270  118.7920  159.2320 C   0  0  0  0  0  0  0  0  0  0  0  0
  139.6740  118.3150  158.1430 C   0  0  0  0  0  0  0  0  0  0  0  0
  139.6580  118.9960  156.9050 C   0  0  0  0  0  0  0  0  0  0  0  0
  138.9090  120.1360  156.7540 C   0  0  0  0  0  0  0  0  0  0  0  0
  138.1630  120.6330  157.8270 C   0  0  0  0  0  0  0  0  0  0  0  0
  137.3920  121.8130  157.6570 O   0  0  0  0  0  0  0  0  0  0  0  0
  138.1070  123.0450  157.7500 C   0  0  0  0  0  0  0  0  0  0  0  0
  138.1820  119.9480  159.0710 C   0  0  0  0  0  0  0  0  0  0  0  0
  138.2330  118.5280  162.6540 N   0  0  0  0  0  0  0  0  0  0  0  0
  139.5580  118.4380  163.2900 C   0  0  0  0  0  0  0  0  0  0  0  0
  139.7740  116.9800  163.7100 C   0  0  0  0  0  0  0  0  0  0  0  0
  140.2220  116.0140  162.7380 C   0  0  0  0  0  0  0  0  0  0  0  0
  140.4130  114.6780  163.1200 C   0  0  0  0  0  0  0  0  0  0  0  0
  140.1710  114.2910  164.4150 C   0  0  0  0  0  0  0  0  0  0  0  0
  139.7260  115.2430  165.3720 C   0  0  0  0  0  0  0  0  0  0  0  0
  139.5300  116.5990  164.9810 C   0  0  0  0  0  0  0  0  0  0  0  0
  134.7980  118.9980  162.6710 N   0  0  0  0  0  0  0  0  0  0  0  0
  133.7580  118.9770  161.6100 C   0  0  0  0  0  0  0  0  0  0  0  0
  134.4460  119.2510  163.9580 C   0  0  0  0  0  0  0  0  0  0  0  0
  135.3390  119.2730  164.8980 N   0  0  0  0  0  0  0  0  0  0  0  0
  134.8840  119.5660  166.2780 C   0  0  0  0  0  0  0  0  0  0  0  0
  135.0100  118.3360  167.2440 C   0  0  0  0  0  0  0  0  0  0  0  0
  135.6140  118.7710  168.6310 C   0  0  0  0  0  0  0  0  0  0  0  0
  134.5200  119.2260  169.4990 O   0  0  0  0  0  0  0  0  0  0  0  0
  133.3190  119.4500  164.2210 O   0  0  0  0  0  0  0  0  0  0  0  0
  138.7280  123.1330  158.9880 F   0  0  0  0  0  0  0  0  0  0  0  0
  139.0870  123.1370  156.7100 F   0  0  0  0  0  0  0  0  0  0  0  0
  137.2820  124.0500  157.6200 F   0  0  0  0  0  0  0  0  0  0  0  0
  2  3  2  0  0  0  0
  3  4  1  0  0  0  0
  4  5  2  0  0  0  0
  5  6  1  0  0  0  0
  6  7  2  0  0  0  0
  7  8  1  0  0  0  0
  8  9  1  0  0  0  0
  9 10  2  0  0  0  0
 10 11  1  0  0  0  0
 11 12  2  0  0  0  0
 12 13  1  0  0  0  0
 13 14  1  0  0  0  0
 14 15  1  0  0  0  0
  9 16  1  0  0  0  0
 13 16  2  0  0  0  0
  4 17  1  0  0  0  0
  7 17  1  0  0  0  0
 17 18  1  0  0  0  0
 18 19  1  0  0  0  0
 19 20  1  0  0  0  0
 20 21  2  0  0  0  0
  1 22  1  0  0  0  0
 21 22  1  0  0  0  0
 22 23  2  0  0  0  0
 19 24  2  0  0  0  0
 23 24  1  0  0  0  0
  5 25  1  0  0  0  0
 25 26  1  0  0  0  0
 25 27  1  0  0  0  0
  3 28  1  0  0  0  0
 27 28  1  0  0  0  0
 28 29  1  0  0  0  0
 29 30  1  0  0  0  0
 30 31  1  0  0  0  0
 31 32  1  0  0  0  0
 27 33  2  0  0  0  0
 15 34  1  0  0  0  0
 15 35  1  0  0  0  0
 15 36  1  0  0  0  0
M  END
$$$$
