8V86
  PyMOL3.1          3D                             0

 41 44  0  0  0  0  0  0  0  0999 V2000
  119.8150  143.4960  132.3530 C   0  0  0  0  0  0  0  0  0  0  0  0
  118.8600  143.6500  133.4900 C   0  0  0  0  0  0  0  0  0  0  0  0
  119.3610  143.1950  134.6340 C   0  0  0  0  0  0  0  0  0  0  0  0
  120.7190  142.5630  134.4220 C   0  0  0  0  0  0  0  0  0  0  0  0
  120.7420  142.3850  132.8820 C   0  0  0  0  0  0  0  0  0  0  0  0
  122.2020  142.3520  132.4230 C   0  0  0  0  0  0  0  0  0  0  0  0
  122.8110  143.6290  132.7560 N   0  0  0  0  0  0  0  0  0  0  0  0
  122.8630  143.8950  134.1120 C   0  0  0  0  0  0  0  0  0  0  0  0
  121.8620  143.4040  134.9610 C   0  0  0  0  0  0  0  0  0  0  0  0
  121.9230  143.7170  136.3120 C   0  0  0  0  0  0  0  0  0  0  0  0
  122.9520  144.4960  136.8140 C   0  0  0  0  0  0  0  0  0  0  0  0
  123.9410  144.9820  135.9780 C   0  0  0  0  0  0  0  0  0  0  0  0
  123.8940  144.6790  134.6290 C   0  0  0  0  0  0  0  0  0  0  0  0
  122.9910  144.8760  138.5360 S   0  0  0  0  0  0  0  0  0  0  0  0
  121.7170  144.5200  139.0820 O   0  0  0  0  0  0  0  0  0  0  0  0
  123.4410  146.2280  138.6630 O   0  0  0  0  0  0  0  0  0  0  0  0
  124.0870  143.9420  139.2330 N   0  0  0  0  0  0  0  0  0  0  0  0
  122.3210  142.0690  130.9410 C   0  0  0  0  0  0  0  0  0  0  0  0
  122.7350  140.8270  130.4820 C   0  0  0  0  0  0  0  0  0  0  0  0
  122.7980  140.5500  129.1280 C   0  0  0  0  0  0  0  0  0  0  0  0
  122.4440  141.5310  128.2270 C   0  0  0  0  0  0  0  0  0  0  0  0
  122.0310  142.7750  128.6500 C   0  0  0  0  0  0  0  0  0  0  0  0
  121.9730  143.0360  130.0080 C   0  0  0  0  0  0  0  0  0  0  0  0
  122.5060  141.1530  126.3680 Br  0  0  0  0  0  0  0  0  0  0  0  0
  117.9660  144.0380  133.3950 H   0  0  0  0  0  0  0  0  0  0  0  0
  118.9170  143.2600  135.5050 H   0  0  0  0  0  0  0  0  0  0  0  0
  120.7500  141.6840  134.8500 H   0  0  0  0  0  0  0  0  0  0  0  0
  120.3270  141.5240  132.6750 H   0  0  0  0  0  0  0  0  0  0  0  0
  122.6660  141.6230  132.8850 H   0  0  0  0  0  0  0  0  0  0  0  0
  123.1230  144.1850  132.1460 H   0  0  0  0  0  0  0  0  0  0  0  0
  121.2270  143.3890  136.9170 H   0  0  0  0  0  0  0  0  0  0  0  0
  124.6670  145.5390  136.3270 H   0  0  0  0  0  0  0  0  0  0  0  0
  124.5930  145.0240  134.0380 H   0  0  0  0  0  0  0  0  0  0  0  0
  123.0080  140.1180  131.0990 H   0  0  0  0  0  0  0  0  0  0  0  0
  123.0710  139.6620  128.8240 H   0  0  0  0  0  0  0  0  0  0  0  0
  121.7920  143.4750  128.0090 H   0  0  0  0  0  0  0  0  0  0  0  0
  121.6800  143.9230  130.3030 H   0  0  0  0  0  0  0  0  0  0  0  0
  120.2740  144.3430  132.1720 H   0  0  0  0  0  0  0  0  0  0  0  0
  119.3390  143.2170  131.5450 H   0  0  0  0  0  0  0  0  0  0  0  0
  124.4600  143.4170  138.6280 H   0  0  0  0  0  0  0  0  0  0  0  0
  124.6610  144.4370  139.6870 H   0  0  0  0  0  0  0  0  0  0  0  0
  1  2  1  0  0  0  0
  2  3  2  0  0  0  0
  3  4  1  0  0  0  0
  1  5  1  0  0  0  0
  4  5  1  0  0  0  0
  5  6  1  0  0  0  0
  6  7  1  0  0  0  0
  7  8  1  0  0  0  0
  4  9  1  0  0  0  0
  8  9  1  0  0  0  0
  9 10  2  0  0  0  0
 10 11  1  0  0  0  0
 11 12  2  0  0  0  0
  8 13  2  0  0  0  0
 12 13  1  0  0  0  0
 11 14  1  0  0  0  0
 14 15  2  0  0  0  0
 14 16  2  0  0  0  0
 14 17  1  0  0  0  0
  6 18  1  0  0  0  0
 18 19  1  0  0  0  0
 19 20  2  0  0  0  0
 20 21  1  0  0  0  0
 21 22  2  0  0  0  0
 18 23  2  0  0  0  0
 22 23  1  0  0  0  0
 21 24  1  0  0  0  0
  2 25  1  0  0  0  0
  3 26  1  0  0  0  0
  4 27  1  0  0  0  0
  5 28  1  0  0  0  0
  6 29  1  0  0  0  0
  7 30  1  0  0  0  0
 10 31  1  0  0  0  0
 12 32  1  0  0  0  0
 13 33  1  0  0  0  0
 19 34  1  0  0  0  0
 20 35  1  0  0  0  0
 22 36  1  0  0  0  0
 23 37  1  0  0  0  0
  1 38  1  0  0  0  0
  1 39  1  0  0  0  0
 17 40  1  0  0  0  0
 17 41  1  0  0  0  0
M  END
$$$$
