8RI2
  PyMOL3.1          3D                             0

 29 32  0  0  0  0  0  0  0  0999 V2000
   18.9750   29.2950  131.3320 Cl  0  0  0  0  0  0  0  0  0  0  0  0
   18.8150   35.0220  129.2640 C   0  0  0  0  0  0  0  0  0  0  0  0
   18.4760   34.7390  130.5830 C   0  0  0  0  0  0  0  0  0  0  0  0
   18.6480   33.3600  130.7420 C   0  0  0  0  0  0  0  0  0  0  0  0
   19.0780   32.8110  129.5580 C   0  0  0  0  0  0  0  0  0  0  0  0
   19.2000   33.8190  128.6170 N   0  0  0  0  0  0  0  0  0  0  0  0
   19.2570   31.4110  129.6080 C   0  0  0  0  0  0  0  0  0  0  0  0
   18.9570   30.9370  130.8360 C   0  0  0  0  0  0  0  0  0  0  0  0
   18.4620   32.1440  131.9500 S   0  0  0  0  0  0  0  0  0  0  0  0
   18.7580   36.2630  128.5440 C   0  0  0  0  0  0  0  0  0  0  0  0
   19.1410   36.1350  127.2250 N   0  0  0  0  0  0  0  0  0  0  0  0
   19.6810   35.0110  126.6360 N   0  0  0  0  0  0  0  0  0  0  0  0
   19.6720   33.9000  127.2670 C   0  0  0  0  0  0  0  0  0  0  0  0
   18.3050   37.3090  128.9760 O   0  0  0  0  0  0  0  0  0  0  0  0
   20.2160   32.6240  126.5260 C   0  0  0  0  0  0  0  0  0  0  0  0
   19.2010   31.6120  126.5770 O   0  0  0  0  0  0  0  0  0  0  0  0
   18.8420   37.2160  126.3100 C   0  0  0  0  0  0  0  0  0  0  0  0
   17.3760   37.1990  125.9140 C   0  0  0  0  0  0  0  0  0  0  0  0
   16.9140   38.2750  125.2710 N   0  0  0  0  0  0  0  0  0  0  0  0
   16.6640   36.2510  126.2180 O   0  0  0  0  0  0  0  0  0  0  0  0
   20.5010   32.9260  125.0570 C   0  0  0  0  0  0  0  0  0  0  0  0
   21.4580   32.0900  127.2320 C   0  0  0  0  0  0  0  0  0  0  0  0
   15.5630   38.3430  124.7130 C   0  0  0  0  0  0  0  0  0  0  0  0
   14.3870   38.3640  125.6940 C   0  0  0  0  0  0  0  0  0  0  0  0
   13.0570   38.3390  124.9680 N   0  0  0  0  0  0  0  0  0  0  0  0
   12.9540   39.4860  124.0070 C   0  0  0  0  0  0  0  0  0  0  0  0
   14.0890   39.4480  123.0000 C   0  0  0  0  0  0  0  0  0  0  0  0
   15.4500   39.4710  123.6960 C   0  0  0  0  0  0  0  0  0  0  0  0
   11.9190   38.3280  125.9330 C   0  0  0  0  0  0  0  0  0  0  0  0
  2  3  2  0  0  0  0
  3  4  1  0  0  0  0
  4  5  2  0  0  0  0
  2  6  1  0  0  0  0
  5  6  1  0  0  0  0
  5  7  1  0  0  0  0
  1  8  1  0  0  0  0
  7  8  2  0  0  0  0
  4  9  1  0  0  0  0
  8  9  1  0  0  0  0
  2 10  1  0  0  0  0
 10 11  1  0  0  0  0
 11 12  1  0  0  0  0
  6 13  1  0  0  0  0
 12 13  2  0  0  0  0
 10 14  2  0  0  0  0
 13 15  1  0  0  0  0
 15 16  1  0  0  0  0
 11 17  1  0  0  0  0
 17 18  1  0  0  0  0
 18 19  1  0  0  0  0
 18 20  2  0  0  0  0
 15 21  1  0  0  0  0
 15 22  1  0  0  0  0
 19 23  1  0  0  0  0
 23 24  1  0  0  0  0
 24 25  1  0  0  0  0
 25 26  1  0  0  0  0
 26 27  1  0  0  0  0
 23 28  1  0  0  0  0
 27 28  1  0  0  0  0
 25 29  1  0  0  0  0
M  END
$$$$
