7BJ1
  PyMOL3.1          3D                             0

 29 31  0  0  0  0  0  0  0  0999 V2000
   16.9021  -15.1785    7.9571 N   0  0  0  0  0  0  0  0  0  0  0  0
   17.0757  -15.2142    9.3027 C   0  0  0  0  0  0  0  0  0  0  0  0
   17.6253  -16.3095    9.9719 C   0  0  0  0  0  0  0  0  0  0  0  0
   17.7822  -16.2706   11.3611 C   0  0  0  0  0  0  0  0  0  0  0  0
   17.3888  -15.1382   12.0838 C   0  0  0  0  0  0  0  0  0  0  0  0
   16.8549  -14.0370   11.4133 C   0  0  0  0  0  0  0  0  0  0  0  0
   16.7033  -14.0833   10.0312 C   0  0  0  0  0  0  0  0  0  0  0  0
   16.9745  -16.2017    7.0939 C   0  0  0  0  0  0  0  0  0  0  0  0
   17.2268  -17.3748    7.3506 O   0  0  0  0  0  0  0  0  0  0  0  0
   16.6951  -15.8675    5.7119 O   0  0  0  0  0  0  0  0  0  0  0  0
   17.2578  -16.6656    4.6738 C   0  0  0  0  0  0  0  0  0  0  0  0
   18.5861  -16.0301    4.2805 C   0  0  0  0  0  0  0  0  0  0  0  0
   19.6413  -16.2425    5.2336 O   0  0  0  0  0  0  0  0  0  0  0  0
   19.8413  -17.5414    5.8678 C   0  0  0  0  0  0  0  0  0  0  0  0
   19.5880  -18.5861    5.2804 O   0  0  0  0  0  0  0  0  0  0  0  0
   20.3468  -17.4496    7.1034 N   0  0  0  0  0  0  0  0  0  0  0  0
   20.7896  -18.4431    7.9156 C   0  0  0  0  0  0  0  0  0  0  0  0
   20.9162  -18.1411    9.2720 C   0  0  0  0  0  0  0  0  0  0  0  0
   21.3748  -19.1033   10.1760 C   0  0  0  0  0  0  0  0  0  0  0  0
   21.7159  -20.3761    9.7159 C   0  0  0  0  0  0  0  0  0  0  0  0
   21.6004  -20.6785    8.3610 C   0  0  0  0  0  0  0  0  0  0  0  0
   21.1477  -19.7164    7.4593 C   0  0  0  0  0  0  0  0  0  0  0  0
   19.0397  -16.4871    2.9020 C   0  0  0  0  0  0  0  0  0  0  0  0
   20.3974  -15.9601    2.7194 N   0  0  0  0  0  0  0  0  0  0  0  0
   20.4354  -15.0109    1.5942 C   0  0  0  0  0  0  0  0  0  0  0  0
   21.8384  -14.4238    1.4832 C   0  0  0  0  0  0  0  0  0  0  0  0
   22.8933  -15.5227    1.3628 C   0  0  0  0  0  0  0  0  0  0  0  0
   22.7468  -16.5446    2.4826 C   0  0  0  0  0  0  0  0  0  0  0  0
   21.3225  -17.0819    2.4932 C   0  0  0  0  0  0  0  0  0  0  0  0
  1  2  1  0  0  0  0
  2  3  1  0  0  0  0
  3  4  2  0  0  0  0
  4  5  1  0  0  0  0
  5  6  2  0  0  0  0
  2  7  2  0  0  0  0
  6  7  1  0  0  0  0
  1  8  1  0  0  0  0
  8  9  2  0  0  0  0
  8 10  1  0  0  0  0
 10 11  1  0  0  0  0
 11 12  1  0  0  0  0
 12 13  1  0  0  0  0
 13 14  1  0  0  0  0
 14 15  2  0  0  0  0
 14 16  1  0  0  0  0
 16 17  1  0  0  0  0
 17 18  1  0  0  0  0
 18 19  2  0  0  0  0
 19 20  1  0  0  0  0
 20 21  2  0  0  0  0
 17 22  2  0  0  0  0
 21 22  1  0  0  0  0
 12 23  1  0  0  0  0
 23 24  1  0  0  0  0
 24 25  1  0  0  0  0
 25 26  1  0  0  0  0
 26 27  1  0  0  0  0
 27 28  1  0  0  0  0
 24 29  1  0  0  0  0
 28 29  1  0  0  0  0
M  END
$$$$
