8EVK
  PyMOL3.1          3D                             0

 12 13  0  0  0  0  0  0  0  0999 V2000
  -21.1320  -10.7620   -6.6340 C   0  0  0  0  0  0  0  0  0  0  0  0
  -19.5710  -11.8530   -8.1230 N   0  0  0  0  0  0  0  0  0  0  0  0
  -20.3440  -11.8460   -7.0450 C   0  0  0  0  0  0  0  0  0  0  0  0
  -20.2610   -9.6670   -8.4500 N   0  0  0  0  0  0  0  0  0  0  0  0
  -19.5440  -10.7720   -8.8050 C   0  0  0  0  0  0  0  0  0  0  0  0
  -20.4340  -12.9200   -6.3260 N   0  0  0  0  0  0  0  0  0  0  0  0
  -21.1250   -9.5670   -7.4160 C   0  0  0  0  0  0  0  0  0  0  0  0
  -21.8240  -10.8740   -5.5360 N   0  0  0  0  0  0  0  0  0  0  0  0
  -21.7050   -8.5440   -7.0810 O   0  0  0  0  0  0  0  0  0  0  0  0
  -21.8110  -11.9190   -4.8710 C   0  0  0  0  0  0  0  0  0  0  0  0
  -21.1230  -12.9540   -5.2750 C   0  0  0  0  0  0  0  0  0  0  0  0
  -18.7690  -10.6800   -9.8880 N   0  0  0  0  0  0  0  0  0  0  0  0
  1  3  2  0  0  0  0
  2  3  1  0  0  0  0
  2  5  2  0  0  0  0
  4  5  1  0  0  0  0
  3  6  1  0  0  0  0
  1  7  1  0  0  0  0
  4  7  1  0  0  0  0
  1  8  1  0  0  0  0
  7  9  2  0  0  0  0
  8 10  2  0  0  0  0
  6 11  2  0  0  0  0
 10 11  1  0  0  0  0
  5 12  1  0  0  0  0
M  END
$$$$
