8CGP
  PyMOL3.1          3D                             0

 44 48  0  0  0  0  0  0  0  0999 V2000
    4.3660   -8.2240   61.3440 Cl  0  0  0  0  0  0  0  0  0  0  0  0
    9.9230  -11.3930   60.3700 O   0  0  0  0  0  0  0  0  0  0  0  0
    9.2950  -11.6390   61.6750 S   0  0  0  0  0  0  0  0  0  0  0  0
   10.3040  -11.1260   62.9780 N   0  0  0  0  0  0  0  0  0  0  0  0
   10.1740   -9.7720   63.5030 C   0  0  0  0  0  0  0  0  0  0  0  0
   10.3470   -8.7180   62.6310 C   0  0  0  0  0  0  0  0  0  0  0  0
   10.2100   -7.4230   63.0830 C   0  0  0  0  0  0  0  0  0  0  0  0
   10.4180   -6.3050   62.0880 C   0  0  0  0  0  0  0  0  0  0  0  0
   11.0530   -5.1600   62.3230 N   0  0  0  0  0  0  0  0  0  0  0  0
   11.0280   -4.4420   61.1820 N   0  0  0  0  0  0  0  0  0  0  0  0
   10.3870   -5.1500   60.2510 N   0  0  0  0  0  0  0  0  0  0  0  0
   10.0070   -6.3220   60.8150 N   0  0  0  0  0  0  0  0  0  0  0  0
    9.9010   -7.1590   64.4070 C   0  0  0  0  0  0  0  0  0  0  0  0
    9.7230   -8.2120   65.2900 C   0  0  0  0  0  0  0  0  0  0  0  0
    9.8600   -9.5160   64.8350 C   0  0  0  0  0  0  0  0  0  0  0  0
    7.6290  -10.8870   61.7860 C   0  0  0  0  0  0  0  0  0  0  0  0
    6.5480  -11.5360   62.4660 C   0  0  0  0  0  0  0  0  0  0  0  0
    5.2830  -10.7010   62.4060 C   0  0  0  0  0  0  0  0  0  0  0  0
    5.5520   -9.5000   61.6800 C   0  0  0  0  0  0  0  0  0  0  0  0
    7.0960   -9.4660   61.1960 S   0  0  0  0  0  0  0  0  0  0  0  0
    9.1640  -13.1080   61.6460 O   0  0  0  0  0  0  0  0  0  0  0  0
    3.5960  -11.2270   63.2040 Br  0  0  0  0  0  0  0  0  0  0  0  0
   -8.8670  -41.4900   15.9380 Cl  0  0  0  0  0  0  0  0  0  0  0  0
   -4.0260  -38.4860   12.7880 O   0  0  0  0  0  0  0  0  0  0  0  0
   -5.3660  -38.2030   12.2510 S   0  0  0  0  0  0  0  0  0  0  0  0
   -5.5080  -38.7630   10.6310 N   0  0  0  0  0  0  0  0  0  0  0  0
   -5.9110  -40.1420   10.3790 C   0  0  0  0  0  0  0  0  0  0  0  0
   -5.2740  -41.1340   11.0960 C   0  0  0  0  0  0  0  0  0  0  0  0
   -5.6170  -42.4540   10.9130 C   0  0  0  0  0  0  0  0  0  0  0  0
   -4.8830  -43.5070   11.7330 C   0  0  0  0  0  0  0  0  0  0  0  0
   -4.6920  -44.7890   11.3900 N   0  0  0  0  0  0  0  0  0  0  0  0
   -4.0020  -45.3920   12.3890 N   0  0  0  0  0  0  0  0  0  0  0  0
   -3.7680  -44.4840   13.3390 N   0  0  0  0  0  0  0  0  0  0  0  0
   -4.3150  -43.3080   12.9350 N   0  0  0  0  0  0  0  0  0  0  0  0
   -6.6060  -42.7930   10.0010 C   0  0  0  0  0  0  0  0  0  0  0  0
   -7.2520  -41.8010    9.2750 C   0  0  0  0  0  0  0  0  0  0  0  0
   -6.9070  -40.4720    9.4620 C   0  0  0  0  0  0  0  0  0  0  0  0
   -6.7190  -38.9020   13.2670 C   0  0  0  0  0  0  0  0  0  0  0  0
   -8.0190  -38.3200   13.3420 C   0  0  0  0  0  0  0  0  0  0  0  0
   -8.9060  -39.1380   14.2620 C   0  0  0  0  0  0  0  0  0  0  0  0
   -8.2040  -40.2660   14.8020 C   0  0  0  0  0  0  0  0  0  0  0  0
   -6.6980  -40.2340   14.2040 S   0  0  0  0  0  0  0  0  0  0  0  0
   -5.4050  -36.7340   12.3190 O   0  0  0  0  0  0  0  0  0  0  0  0
  -10.7400  -38.6430   14.6050 Br  0  0  0  0  0  0  0  0  0  0  0  0
  2  3  2  0  0  0  0
  3  4  1  0  0  0  0
  4  5  1  0  0  0  0
  5  6  1  0  0  0  0
  6  7  2  0  0  0  0
  7  8  1  0  0  0  0
  8  9  1  0  0  0  0
  9 10  1  0  0  0  0
 10 11  2  0  0  0  0
  8 12  2  0  0  0  0
 11 12  1  0  0  0  0
  7 13  1  0  0  0  0
 13 14  2  0  0  0  0
  5 15  2  0  0  0  0
 14 15  1  0  0  0  0
  3 16  1  0  0  0  0
 16 17  2  0  0  0  0
 17 18  1  0  0  0  0
  1 19  1  0  0  0  0
 18 19  2  0  0  0  0
 16 20  1  0  0  0  0
 19 20  1  0  0  0  0
  3 21  2  0  0  0  0
 18 22  1  0  0  0  0
 24 25  2  0  0  0  0
 25 26  1  0  0  0  0
 26 27  1  0  0  0  0
 27 28  1  0  0  0  0
 28 29  2  0  0  0  0
 29 30  1  0  0  0  0
 30 31  1  0  0  0  0
 31 32  1  0  0  0  0
 32 33  2  0  0  0  0
 30 34  2  0  0  0  0
 33 34  1  0  0  0  0
 29 35  1  0  0  0  0
 35 36  2  0  0  0  0
 27 37  2  0  0  0  0
 36 37  1  0  0  0  0
 25 38  1  0  0  0  0
 38 39  2  0  0  0  0
 39 40  1  0  0  0  0
 23 41  1  0  0  0  0
 40 41  2  0  0  0  0
 38 42  1  0  0  0  0
 41 42  1  0  0  0  0
 25 43  2  0  0  0  0
 40 44  1  0  0  0  0
M  END
$$$$
