7EZF
  PyMOL3.1          3D                             0

 20 21  0  0  0  0  0  0  0  0999 V2000
   -4.1340    6.5970   46.5350 Cl  0  0  0  0  0  0  0  0  0  0  0  0
   -6.9280    8.8530   48.4750 C   0  0  0  0  0  0  0  0  0  0  0  0
   -5.8520    4.8970   48.6380 N   0  0  0  0  0  0  0  0  0  0  0  0
  -11.5520    4.4330   51.0200 O   0  0  0  0  0  0  0  0  0  0  0  0
   -5.8720    8.4420   47.6420 C   0  0  0  0  0  0  0  0  0  0  0  0
  -11.6540    5.8450   49.3480 O   0  0  0  0  0  0  0  0  0  0  0  0
   -5.4530    7.1240   47.6310 C   0  0  0  0  0  0  0  0  0  0  0  0
   -5.5210    2.3430   49.8500 O   0  0  0  0  0  0  0  0  0  0  0  0
   -6.0880    6.1990   48.4750 C   0  0  0  0  0  0  0  0  0  0  0  0
   -7.7110    2.2620   50.0780 O   0  0  0  0  0  0  0  0  0  0  0  0
   -7.1260    6.5820   49.3120 C   0  0  0  0  0  0  0  0  0  0  0  0
   -7.5480    7.9220   49.3090 C   0  0  0  0  0  0  0  0  0  0  0  0
   -6.6790    4.3950   49.5140 C   0  0  0  0  0  0  0  0  0  0  0  0
   -7.5320    5.4030   49.9870 C   0  0  0  0  0  0  0  0  0  0  0  0
   -7.3900   10.3260   48.4930 C   0  0  0  0  0  0  0  0  0  0  0  0
   -6.3010   11.3880   48.2300 C   0  0  0  0  0  0  0  0  0  0  0  0
   -8.6380    5.2130   51.0440 C   0  0  0  0  0  0  0  0  0  0  0  0
   -9.8750    6.1170   50.9600 C   0  0  0  0  0  0  0  0  0  0  0  0
  -11.1000    5.4230   50.4020 C   0  0  0  0  0  0  0  0  0  0  0  0
   -6.6460    2.9180   49.8590 C   0  0  0  0  0  0  0  0  0  0  0  0
  2  5  1  0  0  0  0
  1  7  1  0  0  0  0
  5  7  2  0  0  0  0
  3  9  1  0  0  0  0
  7  9  1  0  0  0  0
  9 11  2  0  0  0  0
  2 12  2  0  0  0  0
 11 12  1  0  0  0  0
  3 13  1  0  0  0  0
 11 14  1  0  0  0  0
 13 14  2  0  0  0  0
  2 15  1  0  0  0  0
 15 16  1  0  0  0  0
 14 17  1  0  0  0  0
 17 18  1  0  0  0  0
  4 19  1  0  0  0  0
  6 19  2  0  0  0  0
 18 19  1  0  0  0  0
  8 20  2  0  0  0  0
 10 20  1  0  0  0  0
 13 20  1  0  0  0  0
M  END
$$$$
