7EZF
  PyMOL3.1          3D                             0

 20 21  0  0  0  0  0  0  0  0999 V2000
   29.5630   -3.4140    2.9160 Cl  0  0  0  0  0  0  0  0  0  0  0  0
   32.9680   -4.3270    0.9300 C   0  0  0  0  0  0  0  0  0  0  0  0
   29.0610   -3.7320   -0.1850 N   0  0  0  0  0  0  0  0  0  0  0  0
   32.2690   -7.4100   -4.6550 O   0  0  0  0  0  0  0  0  0  0  0  0
   32.0680   -4.0130    1.9490 C   0  0  0  0  0  0  0  0  0  0  0  0
   31.0030   -5.9920   -5.7540 O   0  0  0  0  0  0  0  0  0  0  0  0
   30.7360   -3.8050    1.6420 C   0  0  0  0  0  0  0  0  0  0  0  0
   27.8280   -3.9010   -3.5690 O   0  0  0  0  0  0  0  0  0  0  0  0
   30.2730   -3.9030    0.3360 C   0  0  0  0  0  0  0  0  0  0  0  0
   26.6900   -3.6390   -1.7930 O   0  0  0  0  0  0  0  0  0  0  0  0
   31.1350   -4.2190   -0.6660 C   0  0  0  0  0  0  0  0  0  0  0  0
   32.4950   -4.4300   -0.3740 C   0  0  0  0  0  0  0  0  0  0  0  0
   29.0600   -3.9260   -1.4810 C   0  0  0  0  0  0  0  0  0  0  0  0
   30.3680   -4.2190   -1.8470 C   0  0  0  0  0  0  0  0  0  0  0  0
   34.4500   -4.5510    1.2200 C   0  0  0  0  0  0  0  0  0  0  0  0
   34.7840   -4.5520    2.7190 C   0  0  0  0  0  0  0  0  0  0  0  0
   30.9310   -4.5560   -3.2160 C   0  0  0  0  0  0  0  0  0  0  0  0
   30.8370   -6.0730   -3.3760 C   0  0  0  0  0  0  0  0  0  0  0  0
   31.4050   -6.5200   -4.6850 C   0  0  0  0  0  0  0  0  0  0  0  0
   27.8000   -3.8160   -2.3280 C   0  0  0  0  0  0  0  0  0  0  0  0
  2  5  1  0  0  0  0
  1  7  1  0  0  0  0
  5  7  2  0  0  0  0
  3  9  1  0  0  0  0
  7  9  1  0  0  0  0
  9 11  2  0  0  0  0
  2 12  2  0  0  0  0
 11 12  1  0  0  0  0
  3 13  1  0  0  0  0
 11 14  1  0  0  0  0
 13 14  2  0  0  0  0
  2 15  1  0  0  0  0
 15 16  1  0  0  0  0
 14 17  1  0  0  0  0
 17 18  1  0  0  0  0
  4 19  1  0  0  0  0
  6 19  2  0  0  0  0
 18 19  1  0  0  0  0
  8 20  2  0  0  0  0
 10 20  1  0  0  0  0
 13 20  1  0  0  0  0
M  END
$$$$
