7ZH4
  PyMOL3.1          3D                             0

 29 32  0  0  0  0  0  0  0  0999 V2000
  164.2730  122.8090  129.9180 N   0  0  0  0  0  0  0  0  0  0  0  0
  161.8530  120.2310  131.2390 C   0  0  0  0  0  0  0  0  0  0  0  0
  162.8290  120.9360  130.3350 C   0  0  0  0  0  0  0  0  0  0  0  0
  164.1540  121.0310  128.3270 N   0  0  0  0  0  0  0  0  0  0  0  0
  163.3870  122.1570  130.6690 C   0  0  0  0  0  0  0  0  0  0  0  0
  162.7700  119.2310  128.6710 N   0  0  0  0  0  0  0  0  0  0  0  0
  164.6240  122.2090  128.7720 C   0  0  0  0  0  0  0  0  0  0  0  0
  159.5710  119.7580  123.0920 N   0  0  0  0  0  0  0  0  0  0  0  0
  163.2590  120.4030  129.1030 C   0  0  0  0  0  0  0  0  0  0  0  0
  159.0290  120.1930  121.0700 N   0  0  0  0  0  0  0  0  0  0  0  0
  163.1620  118.6320  127.4070 C   0  0  0  0  0  0  0  0  0  0  0  0
  160.0620  120.1080  121.8790 N   0  0  0  0  0  0  0  0  0  0  0  0
  162.2110  118.9500  126.2790 C   0  0  0  0  0  0  0  0  0  0  0  0
  162.5920  119.7810  125.2340 C   0  0  0  0  0  0  0  0  0  0  0  0
  161.7240  120.0670  124.1950 C   0  0  0  0  0  0  0  0  0  0  0  0
  160.4510  119.5180  124.1880 C   0  0  0  0  0  0  0  0  0  0  0  0
  160.0530  118.6950  125.2300 C   0  0  0  0  0  0  0  0  0  0  0  0
  160.9300  118.4170  126.2620 C   0  0  0  0  0  0  0  0  0  0  0  0
  158.2220  119.6330  123.0450 C   0  0  0  0  0  0  0  0  0  0  0  0
  157.8960  119.9060  121.7620 C   0  0  0  0  0  0  0  0  0  0  0  0
  165.5980  122.9190  127.9050 C   0  0  0  0  0  0  0  0  0  0  0  0
  165.2510  123.1300  126.5690 C   0  0  0  0  0  0  0  0  0  0  0  0
  166.1180  123.7750  125.7060 C   0  0  0  0  0  0  0  0  0  0  0  0
  167.3380  124.2170  126.1540 C   0  0  0  0  0  0  0  0  0  0  0  0
  167.7060  124.0200  127.4730 C   0  0  0  0  0  0  0  0  0  0  0  0
  166.8510  123.3710  128.3580 C   0  0  0  0  0  0  0  0  0  0  0  0
  167.3050  123.1540  129.7920 C   0  0  0  0  0  0  0  0  0  0  0  0
  168.4500  122.1480  129.8770 C   0  0  0  0  0  0  0  0  0  0  0  0
  167.7000  124.4680  130.4570 C   0  0  0  0  0  0  0  0  0  0  0  0
  2  3  1  0  0  0  0
  1  5  2  0  0  0  0
  3  5  1  0  0  0  0
  1  7  1  0  0  0  0
  4  7  2  0  0  0  0
  3  9  2  0  0  0  0
  4  9  1  0  0  0  0
  6  9  1  0  0  0  0
  6 11  1  0  0  0  0
  8 12  1  0  0  0  0
 10 12  2  0  0  0  0
 11 13  1  0  0  0  0
 13 14  2  0  0  0  0
 14 15  1  0  0  0  0
  8 16  1  0  0  0  0
 15 16  2  0  0  0  0
 16 17  1  0  0  0  0
 13 18  1  0  0  0  0
 17 18  2  0  0  0  0
  8 19  1  0  0  0  0
 10 20  1  0  0  0  0
 19 20  2  0  0  0  0
  7 21  1  0  0  0  0
 21 22  2  0  0  0  0
 22 23  1  0  0  0  0
 23 24  2  0  0  0  0
 24 25  1  0  0  0  0
 21 26  1  0  0  0  0
 25 26  2  0  0  0  0
 26 27  1  0  0  0  0
 27 28  1  0  0  0  0
 27 29  1  0  0  0  0
M  END
$$$$
