8DB9
  PyMOL3.1          3D                             0

 51 54  0  0  0  0  0  0  0  0999 V2000
  -27.8610  -33.0080    6.3700 C   0  0  0  0  0  0  0  0  0  0  0  0
  -29.0670  -33.4720    6.2740 N   0  0  0  0  0  0  0  0  0  0  0  0
  -29.0030  -34.7610    5.8670 C   0  0  0  0  0  0  0  0  0  0  0  0
  -27.7610  -35.0700    5.7130 N   0  0  0  0  0  0  0  0  0  0  0  0
  -27.0520  -33.9720    6.0270 N   0  0  0  0  0  0  0  0  0  0  0  0
  -25.6210  -33.8470    5.9880 C   0  0  0  0  0  0  0  0  0  0  0  0
  -24.6770  -35.0840    6.2840 C   0  0  0  0  0  0  0  0  0  0  0  0
  -23.8570  -35.1900    5.2880 C   0  0  0  0  0  0  0  0  0  0  0  0
  -24.4140  -34.1930    4.0530 C   0  0  0  0  0  0  0  0  0  0  0  0
  -25.4400  -33.4870    4.4890 O   0  0  0  0  0  0  0  0  0  0  0  0
  -24.9880  -35.0390    2.8600 C   0  0  0  0  0  0  0  0  0  0  0  0
  -25.9340  -34.2060    2.2330 O   0  0  0  0  0  0  0  0  0  0  0  0
  -22.5140  -34.8020    5.6710 O   0  0  0  0  0  0  0  0  0  0  0  0
  -24.0400  -34.7240    7.4710 O   0  0  0  0  0  0  0  0  0  0  0  0
  -30.2540  -35.6710    5.6480 C   0  0  0  0  0  0  0  0  0  0  0  0
  -31.2090  -35.2280    5.0040 N   0  0  0  0  0  0  0  0  0  0  0  0
  -30.3120  -37.0520    6.2310 N   0  0  0  0  0  0  0  0  0  0  0  0
   -0.1220  -12.8480  -25.7860 C   0  0  0  0  0  0  0  0  0  0  0  0
   -0.6250  -11.8420  -25.1360 N   0  0  0  0  0  0  0  0  0  0  0  0
   -1.8760  -11.6330  -25.5980 C   0  0  0  0  0  0  0  0  0  0  0  0
   -2.1110  -12.5040  -26.5080 N   0  0  0  0  0  0  0  0  0  0  0  0
   -1.0200  -13.2670  -26.6340 N   0  0  0  0  0  0  0  0  0  0  0  0
   -0.8720  -14.3710  -27.5560 C   0  0  0  0  0  0  0  0  0  0  0  0
   -1.6590  -14.4820  -28.9520 C   0  0  0  0  0  0  0  0  0  0  0  0
   -0.9080  -13.7910  -29.7530 C   0  0  0  0  0  0  0  0  0  0  0  0
    0.6530  -14.1590  -29.2810 C   0  0  0  0  0  0  0  0  0  0  0  0
    0.6230  -14.1580  -27.9510 O   0  0  0  0  0  0  0  0  0  0  0  0
    1.6580  -13.0570  -29.8040 C   0  0  0  0  0  0  0  0  0  0  0  0
    2.9690  -13.5330  -29.6120 O   0  0  0  0  0  0  0  0  0  0  0  0
   -1.1190  -14.0730  -31.1590 O   0  0  0  0  0  0  0  0  0  0  0  0
   -1.7400  -15.8450  -29.3130 O   0  0  0  0  0  0  0  0  0  0  0  0
   -2.8600  -10.5300  -25.1090 C   0  0  0  0  0  0  0  0  0  0  0  0
   -3.1120   -9.3230  -25.9520 N   0  0  0  0  0  0  0  0  0  0  0  0
   -3.4320  -10.6530  -24.0260 N   0  0  0  0  0  0  0  0  0  0  0  0
  -22.2260  -47.7420  -36.6040 C   0  0  0  0  0  0  0  0  0  0  0  0
  -20.9990  -47.6550  -36.1870 N   0  0  0  0  0  0  0  0  0  0  0  0
  -20.9240  -46.5460  -35.4190 C   0  0  0  0  0  0  0  0  0  0  0  0
  -22.0810  -45.9830  -35.3700 N   0  0  0  0  0  0  0  0  0  0  0  0
  -22.9000  -46.7350  -36.1100 N   0  0  0  0  0  0  0  0  0  0  0  0
  -24.2980  -46.4580  -36.3320 C   0  0  0  0  0  0  0  0  0  0  0  0
  -25.4250  -47.5920  -36.4340 C   0  0  0  0  0  0  0  0  0  0  0  0
  -25.9370  -47.7090  -35.2450 C   0  0  0  0  0  0  0  0  0  0  0  0
  -25.4500  -46.3980  -34.3250 C   0  0  0  0  0  0  0  0  0  0  0  0
  -24.6150  -45.6580  -35.0340 O   0  0  0  0  0  0  0  0  0  0  0  0
  -24.6540  -46.9540  -33.0860 C   0  0  0  0  0  0  0  0  0  0  0  0
  -25.3300  -46.5910  -31.9120 O   0  0  0  0  0  0  0  0  0  0  0  0
  -27.3780  -47.7920  -35.2740 O   0  0  0  0  0  0  0  0  0  0  0  0
  -26.3540  -47.1690  -37.3970 O   0  0  0  0  0  0  0  0  0  0  0  0
  -19.6420  -46.0460  -34.7050 C   0  0  0  0  0  0  0  0  0  0  0  0
  -19.4090  -44.8350  -34.5920 N   0  0  0  0  0  0  0  0  0  0  0  0
  -18.7100  -47.0730  -34.1600 N   0  0  0  0  0  0  0  0  0  0  0  0
  1  2  2  0  0  0  0
  2  3  1  0  0  0  0
  3  4  2  0  0  0  0
  1  5  1  0  0  0  0
  4  5  1  0  0  0  0
  5  6  1  0  0  0  0
  6  7  1  0  0  0  0
  7  8  1  0  0  0  0
  8  9  1  0  0  0  0
  6 10  1  0  0  0  0
  9 10  1  0  0  0  0
  9 11  1  0  0  0  0
 11 12  1  0  0  0  0
  8 13  1  0  0  0  0
  7 14  1  0  0  0  0
  3 15  1  0  0  0  0
 15 16  2  0  0  0  0
 15 17  1  0  0  0  0
 18 19  2  0  0  0  0
 19 20  1  0  0  0  0
 20 21  2  0  0  0  0
 18 22  1  0  0  0  0
 21 22  1  0  0  0  0
 22 23  1  0  0  0  0
 23 24  1  0  0  0  0
 24 25  1  0  0  0  0
 25 26  1  0  0  0  0
 23 27  1  0  0  0  0
 26 27  1  0  0  0  0
 26 28  1  0  0  0  0
 28 29  1  0  0  0  0
 25 30  1  0  0  0  0
 24 31  1  0  0  0  0
 20 32  1  0  0  0  0
 32 33  2  0  0  0  0
 32 34  1  0  0  0  0
 35 36  2  0  0  0  0
 36 37  1  0  0  0  0
 37 38  2  0  0  0  0
 35 39  1  0  0  0  0
 38 39  1  0  0  0  0
 39 40  1  0  0  0  0
 40 41  1  0  0  0  0
 41 42  1  0  0  0  0
 42 43  1  0  0  0  0
 40 44  1  0  0  0  0
 43 44  1  0  0  0  0
 43 45  1  0  0  0  0
 45 46  1  0  0  0  0
 42 47  1  0  0  0  0
 41 48  1  0  0  0  0
 37 49  1  0  0  0  0
 49 50  2  0  0  0  0
 49 51  1  0  0  0  0
M  END
$$$$
