8GKC
  PyMOL3.1          3D                             0

 33 37  0  0  0  0  0  0  0  0999 V2000
  108.5540  179.8840  129.3410 C   0  0  0  0  0  0  0  0  0  0  0  0
  108.4770  180.4710  130.7670 C   0  0  0  0  0  0  0  0  0  0  0  0
  109.6420  180.9000  131.4230 C   0  0  0  0  0  0  0  0  0  0  0  0
  109.5640  181.4310  132.7200 C   0  0  0  0  0  0  0  0  0  0  0  0
  108.3230  181.5330  133.3580 C   0  0  0  0  0  0  0  0  0  0  0  0
  107.1620  181.1060  132.7030 C   0  0  0  0  0  0  0  0  0  0  0  0
  107.2330  180.5720  131.4130 C   0  0  0  0  0  0  0  0  0  0  0  0
  105.8930  180.1140  130.7280 C   0  0  0  0  0  0  0  0  0  0  0  0
  105.4480  180.7310  129.8200 O   0  0  0  0  0  0  0  0  0  0  0  0
  105.1640  178.9130  131.2470 N   0  0  0  0  0  0  0  0  0  0  0  0
  103.8540  178.3960  130.6940 C   0  0  0  0  0  0  0  0  0  0  0  0
  102.7640  178.3070  131.7850 C   0  0  0  0  0  0  0  0  0  0  0  0
  103.3410  178.5500  133.1320 C   0  0  0  0  0  0  0  0  0  0  0  0
  104.5200  177.6760  133.3540 C   0  0  0  0  0  0  0  0  0  0  0  0
  105.6510  178.0800  132.4070 C   0  0  0  0  0  0  0  0  0  0  0  0
  101.8410  178.4510  133.5590 C   0  0  0  0  0  0  0  0  0  0  0  0
  101.0700  179.6090  133.7180 C   0  0  0  0  0  0  0  0  0  0  0  0
   99.7330  179.5110  134.1140 C   0  0  0  0  0  0  0  0  0  0  0  0
   99.1710  178.2560  134.3590 C   0  0  0  0  0  0  0  0  0  0  0  0
   99.9450  177.1040  134.2060 C   0  0  0  0  0  0  0  0  0  0  0  0
  101.2820  177.2000  133.8120 C   0  0  0  0  0  0  0  0  0  0  0  0
   97.7070  178.1230  134.7920 C   0  0  0  0  0  0  0  0  0  0  0  0
   96.6240  178.0130  135.1140 N   0  0  0  0  0  0  0  0  0  0  0  0
  108.2220  182.1160  134.7830 C   0  0  0  0  0  0  0  0  0  0  0  0
  108.0440  181.4190  135.8970 N   0  0  0  0  0  0  0  0  0  0  0  0
  108.0080  182.2910  136.9230 N   0  0  0  0  0  0  0  0  0  0  0  0
  108.1610  183.5100  136.4480 C   0  0  0  0  0  0  0  0  0  0  0  0
  108.2950  183.4210  135.1130 N   0  0  0  0  0  0  0  0  0  0  0  0
  108.1840  184.8080  137.2780 C   0  0  0  0  0  0  0  0  0  0  0  0
  110.8360  181.9060  133.4760 C   0  0  0  0  0  0  0  0  0  0  0  0
  111.6770  182.9970  132.8050 C   0  0  0  0  0  0  0  0  0  0  0  0
  112.9200  182.1110  132.9230 C   0  0  0  0  0  0  0  0  0  0  0  0
  112.0830  181.0160  133.5880 C   0  0  0  0  0  0  0  0  0  0  0  0
  1  2  1  0  0  0  0
  2  3  2  0  0  0  0
  3  4  1  0  0  0  0
  4  5  2  0  0  0  0
  5  6  1  0  0  0  0
  2  7  1  0  0  0  0
  6  7  2  0  0  0  0
  7  8  1  0  0  0  0
  8  9  2  0  0  0  0
  8 10  1  0  0  0  0
 10 11  1  0  0  0  0
 11 12  1  0  0  0  0
 12 13  1  0  0  0  0
 13 14  1  0  0  0  0
 10 15  1  0  0  0  0
 14 15  1  0  0  0  0
 13 16  1  0  0  0  0
 16 17  1  0  0  0  0
 17 18  2  0  0  0  0
 18 19  1  0  0  0  0
 19 20  2  0  0  0  0
 16 21  2  0  0  0  0
 20 21  1  0  0  0  0
 19 22  1  0  0  0  0
 22 23  3  0  0  0  0
  5 24  1  0  0  0  0
 24 25  2  0  0  0  0
 25 26  1  0  0  0  0
 26 27  2  0  0  0  0
 24 28  1  0  0  0  0
 27 28  1  0  0  0  0
 27 29  1  0  0  0  0
  4 30  1  0  0  0  0
 30 31  1  0  0  0  0
 31 32  1  0  0  0  0
 30 33  1  0  0  0  0
 32 33  1  0  0  0  0
M  END
$$$$
