8QOJ
  PyMOL3.1          3D                             0

 42 44  0  0  0  0  0  0  0  0999 V2000
  126.7340  120.0270  167.5760 C   0  0  0  0  0  0  0  0  0  0  0  0
  126.1510  119.1420  168.4990 C   0  0  0  0  0  0  0  0  0  0  0  0
  127.0640  121.2970  167.9440 C   0  0  0  0  0  0  0  0  0  0  0  0
  126.8650  123.3830  171.0030 C   0  0  0  0  0  0  0  0  0  0  0  0
  132.1080  124.5890  168.7740 C   0  0  0  0  0  0  0  0  0  0  0  0
  131.5050  123.7540  169.8980 C   0  0  0  0  0  0  0  0  0  0  0  0
  131.2900  124.4380  167.4970 C   0  0  0  0  0  0  0  0  0  0  0  0
  130.0120  124.0290  170.0610 C   0  0  0  0  0  0  0  0  0  0  0  0
  126.2830  122.4160  171.8330 C   0  0  0  0  0  0  0  0  0  0  0  0
  127.1440  123.0640  169.7040 C   0  0  0  0  0  0  0  0  0  0  0  0
  125.9040  119.5450  169.7810 C   0  0  0  0  0  0  0  0  0  0  0  0
  126.8270  121.7550  169.2590 C   0  0  0  0  0  0  0  0  0  0  0  0
  126.2380  120.8630  170.1890 C   0  0  0  0  0  0  0  0  0  0  0  0
  127.7820  124.1100  168.8120 C   0  0  0  0  0  0  0  0  0  0  0  0
  129.2980  123.8670  168.7170 C   0  0  0  0  0  0  0  0  0  0  0  0
  125.9770  122.7860  173.2620 C   0  0  0  0  0  0  0  0  0  0  0  0
  125.2820  118.6060  170.7700 C   0  0  0  0  0  0  0  0  0  0  0  0
  125.9760  121.2140  171.4600 N   0  0  0  0  0  0  0  0  0  0  0  0
  129.8710  124.7090  167.6830 N   0  0  0  0  0  0  0  0  0  0  0  0
  127.4820  125.4070  169.2550 O   0  0  0  0  0  0  0  0  0  0  0  0
  125.0630  121.9960  173.8060 F   0  0  0  0  0  0  0  0  0  0  0  0
  127.0780  122.7260  174.0210 F   0  0  0  0  0  0  0  0  0  0  0  0
  125.5260  124.0450  173.3360 F   0  0  0  0  0  0  0  0  0  0  0  0
  126.0720  118.4150  171.8330 F   0  0  0  0  0  0  0  0  0  0  0  0
  125.0590  117.3970  170.2450 F   0  0  0  0  0  0  0  0  0  0  0  0
  124.1180  119.0570  171.2460 F   0  0  0  0  0  0  0  0  0  0  0  0
  125.9380  118.2820  168.2170 H   0  0  0  0  0  0  0  0  0  0  0  0
  126.8960  119.7350  166.7070 H   0  0  0  0  0  0  0  0  0  0  0  0
  127.4500  121.8590  167.3130 H   0  0  0  0  0  0  0  0  0  0  0  0
  127.0570  124.2280  171.3400 H   0  0  0  0  0  0  0  0  0  0  0  0
  127.4010  124.0540  167.9220 H   0  0  0  0  0  0  0  0  0  0  0  0
  127.8030  125.9770  168.7120 H   0  0  0  0  0  0  0  0  0  0  0  0
  129.4220  122.9510  168.4200 H   0  0  0  0  0  0  0  0  0  0  0  0
  129.6340  123.4080  170.7020 H   0  0  0  0  0  0  0  0  0  0  0  0
  129.8820  124.9200  170.4210 H   0  0  0  0  0  0  0  0  0  0  0  0
  131.9660  123.9240  170.7340 H   0  0  0  0  0  0  0  0  0  0  0  0
  131.6330  122.8130  169.7000 H   0  0  0  0  0  0  0  0  0  0  0  0
  133.0200  124.3050  168.6060 H   0  0  0  0  0  0  0  0  0  0  0  0
  132.1520  125.5230  169.0330 H   0  0  0  0  0  0  0  0  0  0  0  0
  131.3830  123.5450  167.1320 H   0  0  0  0  0  0  0  0  0  0  0  0
  131.6240  125.0510  166.8230 H   0  0  0  0  0  0  0  0  0  0  0  0
  129.4580  124.5460  166.9110 H   0  0  0  0  0  0  0  0  0  0  0  0
  1  2  1  0  0  0  0
  1  3  2  0  0  0  0
  5  6  1  0  0  0  0
  5  7  1  0  0  0  0
  6  8  1  0  0  0  0
  4  9  2  0  0  0  0
  4 10  1  0  0  0  0
  2 11  2  0  0  0  0
  3 12  1  0  0  0  0
 10 12  2  0  0  0  0
 11 13  1  0  0  0  0
 12 13  1  0  0  0  0
 10 14  1  0  0  0  0
  8 15  1  0  0  0  0
 14 15  1  0  0  0  0
  9 16  1  0  0  0  0
 11 17  1  0  0  0  0
  9 18  1  0  0  0  0
 13 18  2  0  0  0  0
  7 19  1  0  0  0  0
 15 19  1  0  0  0  0
 14 20  1  0  0  0  0
 16 21  1  0  0  0  0
 16 22  1  0  0  0  0
 16 23  1  0  0  0  0
 17 24  1  0  0  0  0
 17 25  1  0  0  0  0
 17 26  1  0  0  0  0
  2 27  1  0  0  0  0
  1 28  1  0  0  0  0
  3 29  1  0  0  0  0
  4 30  1  0  0  0  0
 14 31  1  0  0  0  0
 20 32  1  0  0  0  0
 15 33  1  0  0  0  0
  8 34  1  0  0  0  0
  8 35  1  0  0  0  0
  6 36  1  0  0  0  0
  6 37  1  0  0  0  0
  5 38  1  0  0  0  0
  5 39  1  0  0  0  0
  7 40  1  0  0  0  0
  7 41  1  0  0  0  0
 19 42  1  0  0  0  0
M  END
$$$$
