8CVN
  PyMOL3.1          3D                             0

 28 31  0  0  0  0  0  0  0  0999 V2000
  146.8360  123.8930  118.0680 C   0  0  0  0  0  0  0  0  0  0  0  0
  144.7930  123.3370  119.0460 N   0  0  0  0  0  0  0  0  0  0  0  0
  144.4230  125.3800  128.5560 O   0  0  0  0  0  0  0  0  0  0  0  0
  147.0780  123.8260  119.7390 S   0  0  0  0  0  0  0  0  0  0  0  0
  145.4780  123.5840  117.8960 C   0  0  0  0  0  0  0  0  0  0  0  0
  145.5810  123.8390  122.5890 N   0  0  0  0  0  0  0  0  0  0  0  0
  145.7400  124.3550  125.3060 S   0  0  0  0  0  0  0  0  0  0  0  0
  145.5010  123.4270  120.1710 C   0  0  0  0  0  0  0  0  0  0  0  0
  141.2260  121.0540  122.7300 N   0  0  0  0  0  0  0  0  0  0  0  0
  144.6900  123.7990  128.1870 S   0  0  0  0  0  0  0  0  0  0  0  0
  145.0100  123.1950  121.5870 C   0  0  0  0  0  0  0  0  0  0  0  0
  141.2940  119.3290  124.0170 N   0  0  0  0  0  0  0  0  0  0  0  0
  143.9770  122.2920  121.8240 C   0  0  0  0  0  0  0  0  0  0  0  0
  142.8930  121.9280  126.2320 N   0  0  0  0  0  0  0  0  0  0  0  0
  143.5350  122.0800  123.1190 C   0  0  0  0  0  0  0  0  0  0  0  0
  144.1650  122.7870  124.1740 C   0  0  0  0  0  0  0  0  0  0  0  0
  145.1930  123.6630  123.8450 C   0  0  0  0  0  0  0  0  0  0  0  0
  143.9080  122.7520  125.6150 C   0  0  0  0  0  0  0  0  0  0  0  0
  144.7110  123.5870  126.3940 C   0  0  0  0  0  0  0  0  0  0  0  0
  142.4060  121.0710  123.3220 C   0  0  0  0  0  0  0  0  0  0  0  0
  140.5580  120.0030  123.1610 C   0  0  0  0  0  0  0  0  0  0  0  0
  142.4500  119.9490  124.1360 C   0  0  0  0  0  0  0  0  0  0  0  0
  140.7340  122.0270  121.7760 C   0  0  0  0  0  0  0  0  0  0  0  0
  139.1490  119.6180  122.7380 C   0  0  0  0  0  0  0  0  0  0  0  0
  146.3180  123.2700  128.7840 C   0  0  0  0  0  0  0  0  0  0  0  0
  146.4290  123.4700  130.2860 C   0  0  0  0  0  0  0  0  0  0  0  0
  146.0040  122.2190  131.0430 C   0  0  0  0  0  0  0  0  0  0  0  0
  145.4560  122.5560  132.4230 C   0  0  0  0  0  0  0  0  0  0  0  0
  1  4  1  0  0  0  0
  1  5  2  0  0  0  0
  2  5  1  0  0  0  0
  2  8  2  0  0  0  0
  4  8  1  0  0  0  0
  3 10  1  0  0  0  0
  6 11  1  0  0  0  0
  8 11  1  0  0  0  0
 11 13  2  0  0  0  0
 13 15  1  0  0  0  0
 15 16  2  0  0  0  0
  6 17  2  0  0  0  0
  7 17  1  0  0  0  0
 16 17  1  0  0  0  0
 14 18  1  0  0  0  0
 16 18  1  0  0  0  0
  7 19  1  0  0  0  0
 10 19  1  0  0  0  0
 18 19  2  0  0  0  0
  9 20  1  0  0  0  0
 15 20  1  0  0  0  0
  9 21  1  0  0  0  0
 12 21  2  0  0  0  0
 12 22  1  0  0  0  0
 20 22  2  0  0  0  0
  9 23  1  0  0  0  0
 21 24  1  0  0  0  0
 10 25  1  0  0  0  0
 25 26  1  0  0  0  0
 26 27  1  0  0  0  0
 27 28  1  0  0  0  0
M  END
$$$$
