8F0R
  PyMOL3.1          3D                             0

 38 41  0  0  0  0  0  0  0  0999 V2000
  135.6950  173.5070  192.1190 Cl  0  0  0  0  0  0  0  0  0  0  0  0
  132.8040  178.2020  193.0850 C   0  0  0  0  0  0  0  0  0  0  0  0
  132.1530  177.0550  193.7130 N   0  0  0  0  0  0  0  0  0  0  0  0
  138.5300  174.1390  187.4660 O   0  0  0  0  0  0  0  0  0  0  0  0
  137.4060  175.3240  187.2430 S   0  0  0  0  0  0  0  0  0  0  0  0
  131.4030  177.5360  194.8630 C   0  0  0  0  0  0  0  0  0  0  0  0
  133.3560  175.4020  191.7490 N   0  0  0  0  0  0  0  0  0  0  0  0
  138.1620  176.7880  187.1360 O   0  0  0  0  0  0  0  0  0  0  0  0
  131.3170  176.2120  192.8530 C   0  0  0  0  0  0  0  0  0  0  0  0
  136.4940  175.0440  185.8300 N   0  0  0  0  0  0  0  0  0  0  0  0
  129.9570  176.8130  192.4740 C   0  0  0  0  0  0  0  0  0  0  0  0
  135.8760  173.5170  184.1380 N   0  0  0  0  0  0  0  0  0  0  0  0
  129.1260  175.6740  191.8750 C   0  0  0  0  0  0  0  0  0  0  0  0
  135.7860  171.2210  184.4050 N   0  0  0  0  0  0  0  0  0  0  0  0
  129.7600  175.1750  190.5900 C   0  0  0  0  0  0  0  0  0  0  0  0
  131.2240  174.7990  190.7550 C   0  0  0  0  0  0  0  0  0  0  0  0
  132.0060  175.8670  191.5180 C   0  0  0  0  0  0  0  0  0  0  0  0
  134.3240  175.3890  190.6660 C   0  0  0  0  0  0  0  0  0  0  0  0
  134.1710  176.2060  189.5320 C   0  0  0  0  0  0  0  0  0  0  0  0
  135.1140  176.1740  188.5080 C   0  0  0  0  0  0  0  0  0  0  0  0
  136.2070  175.3470  188.6010 C   0  0  0  0  0  0  0  0  0  0  0  0
  136.3690  174.5420  189.6900 C   0  0  0  0  0  0  0  0  0  0  0  0
  135.4460  174.5660  190.7040 C   0  0  0  0  0  0  0  0  0  0  0  0
  136.2640  173.6930  185.3570 C   0  0  0  0  0  0  0  0  0  0  0  0
  135.6430  172.3260  183.6490 C   0  0  0  0  0  0  0  0  0  0  0  0
  136.1850  171.3790  185.6800 C   0  0  0  0  0  0  0  0  0  0  0  0
  136.4320  172.6450  186.2000 C   0  0  0  0  0  0  0  0  0  0  0  0
  127.6640  176.1160  191.6420 C   0  0  0  0  0  0  0  0  0  0  0  0
  127.2920  176.8550  190.5300 C   0  0  0  0  0  0  0  0  0  0  0  0
  125.9690  177.2310  190.3570 C   0  0  0  0  0  0  0  0  0  0  0  0
  125.0170  176.8650  191.2920 C   0  0  0  0  0  0  0  0  0  0  0  0
  125.3860  176.1260  192.4010 C   0  0  0  0  0  0  0  0  0  0  0  0
  126.7070  175.7520  192.5740 C   0  0  0  0  0  0  0  0  0  0  0  0
  125.5490  178.0440  189.1360 C   0  0  0  0  0  0  0  0  0  0  0  0
  134.9530  176.9710  187.4130 F   0  0  0  0  0  0  0  0  0  0  0  0
  126.6550  178.4780  188.4670 F   0  0  0  0  0  0  0  0  0  0  0  0
  124.8010  177.2580  188.3080 F   0  0  0  0  0  0  0  0  0  0  0  0
  124.8090  179.1190  189.5340 F   0  0  0  0  0  0  0  0  0  0  0  0
  2  3  1  0  0  0  0
  4  5  2  0  0  0  0
  3  6  1  0  0  0  0
  5  8  2  0  0  0  0
  3  9  1  0  0  0  0
  5 10  1  0  0  0  0
  9 11  1  0  0  0  0
 11 13  1  0  0  0  0
 13 15  1  0  0  0  0
 15 16  1  0  0  0  0
  7 17  1  0  0  0  0
  9 17  1  0  0  0  0
 16 17  1  0  0  0  0
  7 18  1  0  0  0  0
 18 19  2  0  0  0  0
 19 20  1  0  0  0  0
  5 21  1  0  0  0  0
 20 21  2  0  0  0  0
 21 22  1  0  0  0  0
  1 23  1  0  0  0  0
 18 23  1  0  0  0  0
 22 23  2  0  0  0  0
 10 24  1  0  0  0  0
 12 24  1  0  0  0  0
 12 25  2  0  0  0  0
 14 25  1  0  0  0  0
 14 26  2  0  0  0  0
 24 27  2  0  0  0  0
 26 27  1  0  0  0  0
 13 28  1  0  0  0  0
 28 29  1  0  0  0  0
 29 30  2  0  0  0  0
 30 31  1  0  0  0  0
 31 32  2  0  0  0  0
 28 33  2  0  0  0  0
 32 33  1  0  0  0  0
 30 34  1  0  0  0  0
 20 35  1  0  0  0  0
 34 36  1  0  0  0  0
 34 37  1  0  0  0  0
 34 38  1  0  0  0  0
M  END
$$$$
