7REC
  PyMOL3.1          3D                             0

 20 21  0  0  0  0  0  0  0  0999 V2000
   34.7150   47.1980   24.7660 N   0  0  0  0  0  0  0  0  0  0  0  0
   35.8050   48.1030   21.6660 C   0  0  0  0  0  0  0  0  0  0  0  0
   36.4300   48.4000   20.6150 O   0  5  0  0  0  0  0  0  0  0  0  0
   33.5430   44.6250   23.6700 Cl  0  0  0  0  0  0  0  0  0  0  0  0
   34.9920   48.1840   27.5850 Cl  0  0  0  0  0  0  0  0  0  0  0  0
   36.0790   48.8820   22.9500 C   0  0  0  0  0  0  0  0  0  0  0  0
   34.9580   47.1700   21.6610 O   0  0  0  0  0  0  0  0  0  0  0  0
   34.7820   49.3410   23.6030 C   0  0  0  0  0  0  0  0  0  0  0  0
   32.5860   52.2730   23.5800 O   0  0  0  0  0  0  0  0  0  0  0  0
   34.1270   48.5040   24.4880 C   0  0  0  0  0  0  0  0  0  0  0  0
   34.1920   46.2850   25.7730 C   0  0  0  0  0  0  0  0  0  0  0  0
   33.6400   45.0690   25.3970 C   0  0  0  0  0  0  0  0  0  0  0  0
   33.1500   44.2030   26.3620 C   0  0  0  0  0  0  0  0  0  0  0  0
   33.2210   44.5460   27.7010 C   0  0  0  0  0  0  0  0  0  0  0  0
   33.7800   45.7570   28.0770 C   0  0  0  0  0  0  0  0  0  0  0  0
   34.2680   46.6230   27.1130 C   0  0  0  0  0  0  0  0  0  0  0  0
   32.9450   48.9240   25.0830 C   0  0  0  0  0  0  0  0  0  0  0  0
   32.4300   50.1780   24.7850 C   0  0  0  0  0  0  0  0  0  0  0  0
   33.0950   51.0090   23.8950 C   0  0  0  0  0  0  0  0  0  0  0  0
   34.2710   50.5910   23.3060 C   0  0  0  0  0  0  0  0  0  0  0  0
  2  3  2  0  0  0  0
  2  6  1  0  0  0  0
  2  7  1  0  0  0  0
  6  8  1  0  0  0  0
  1 10  1  0  0  0  0
  8 10  1  0  0  0  0
  1 11  1  0  0  0  0
  4 12  1  0  0  0  0
 11 12  2  0  0  0  0
 12 13  1  0  0  0  0
 13 14  2  0  0  0  0
 14 15  1  0  0  0  0
  5 16  1  0  0  0  0
 11 16  1  0  0  0  0
 15 16  2  0  0  0  0
 10 17  2  0  0  0  0
 17 18  1  0  0  0  0
  9 19  1  0  0  0  0
 18 19  2  0  0  0  0
  8 20  2  0  0  0  0
 19 20  1  0  0  0  0
M  END
$$$$
