7REC
  PyMOL3.1          3D                             0

 20 21  0  0  0  0  0  0  0  0999 V2000
    4.6270   68.3640    6.9190 N   0  0  0  0  0  0  0  0  0  0  0  0
    6.9630   70.6110    7.4460 C   0  0  0  0  0  0  0  0  0  0  0  0
    7.6010   71.6930    7.5270 O   0  0  0  0  0  0  0  0  0  0  0  0
    3.6920   66.9400    4.3970 Cl  0  0  0  0  0  0  0  0  0  0  0  0
    3.3370   68.6100    9.6240 Cl  0  0  0  0  0  0  0  0  0  0  0  0
    6.9980   69.8140    6.1400 C   0  0  0  0  0  0  0  0  0  0  0  0
    6.2940   70.2040    8.4330 O   0  5  0  0  0  0  0  0  0  0  0  0
    7.0090   68.2990    6.3120 C   0  0  0  0  0  0  0  0  0  0  0  0
    9.3970   65.5230    6.0000 O   0  0  0  0  0  0  0  0  0  0  0  0
    5.8580   67.6220    6.6830 C   0  0  0  0  0  0  0  0  0  0  0  0
    3.3450   67.6790    7.0330 C   0  0  0  0  0  0  0  0  0  0  0  0
    2.8070   66.9990    5.9480 C   0  0  0  0  0  0  0  0  0  0  0  0
    1.5840   66.3580    6.0720 C   0  0  0  0  0  0  0  0  0  0  0  0
    0.8930   66.4030    7.2720 C   0  0  0  0  0  0  0  0  0  0  0  0
    1.4270   67.0870    8.3540 C   0  0  0  0  0  0  0  0  0  0  0  0
    2.6510   67.7270    8.2320 C   0  0  0  0  0  0  0  0  0  0  0  0
    5.8820   66.2450    6.8270 C   0  0  0  0  0  0  0  0  0  0  0  0
    7.0560   65.5470    6.6010 C   0  0  0  0  0  0  0  0  0  0  0  0
    8.2060   66.2250    6.2280 C   0  0  0  0  0  0  0  0  0  0  0  0
    8.1780   67.5990    6.0820 C   0  0  0  0  0  0  0  0  0  0  0  0
  2  3  2  0  0  0  0
  2  6  1  0  0  0  0
  2  7  1  0  0  0  0
  6  8  1  0  0  0  0
  1 10  1  0  0  0  0
  8 10  1  0  0  0  0
  1 11  1  0  0  0  0
  4 12  1  0  0  0  0
 11 12  2  0  0  0  0
 12 13  1  0  0  0  0
 13 14  2  0  0  0  0
 14 15  1  0  0  0  0
  5 16  1  0  0  0  0
 11 16  1  0  0  0  0
 15 16  2  0  0  0  0
 10 17  2  0  0  0  0
 17 18  1  0  0  0  0
  9 19  1  0  0  0  0
 18 19  2  0  0  0  0
  8 20  2  0  0  0  0
 19 20  1  0  0  0  0
M  END
$$$$
