7REC
  PyMOL3.1          3D                             0

 20 21  0  0  0  0  0  0  0  0999 V2000
   15.9700   19.1450    2.3370 N   0  0  0  0  0  0  0  0  0  0  0  0
   18.5410   16.8160    3.0110 C   0  0  0  0  0  0  0  0  0  0  0  0
   19.4100   15.9080    3.0560 O   0  0  0  0  0  0  0  0  0  0  0  0
   13.6620   18.6300    0.4310 Cl  0  0  0  0  0  0  0  0  0  0  0  0
   16.9300   21.6830    3.6110 Cl  0  0  0  0  0  0  0  0  0  0  0  0
   17.2420   16.5970    2.2350 C   0  0  0  0  0  0  0  0  0  0  0  0
   18.7450   17.9080    3.6030 O   0  5  0  0  0  0  0  0  0  0  0  0
   16.0330   16.8320    3.1340 C   0  0  0  0  0  0  0  0  0  0  0  0
   13.9650   14.9580    5.5190 O   0  0  0  0  0  0  0  0  0  0  0  0
   15.4300   18.0780    3.1690 C   0  0  0  0  0  0  0  0  0  0  0  0
   15.1870   20.3210    1.9810 C   0  0  0  0  0  0  0  0  0  0  0  0
   14.1110   20.2160    1.1130 C   0  0  0  0  0  0  0  0  0  0  0  0
   13.3790   21.3430    0.7740 C   0  0  0  0  0  0  0  0  0  0  0  0
   13.7270   22.5760    1.2990 C   0  0  0  0  0  0  0  0  0  0  0  0
   14.8070   22.6850    2.1620 C   0  0  0  0  0  0  0  0  0  0  0  0
   15.5380   21.5560    2.5000 C   0  0  0  0  0  0  0  0  0  0  0  0
   14.3330   18.2940    3.9900 C   0  0  0  0  0  0  0  0  0  0  0  0
   13.8450   17.2580    4.7740 C   0  0  0  0  0  0  0  0  0  0  0  0
   14.4530   16.0110    4.7350 C   0  0  0  0  0  0  0  0  0  0  0  0
   15.5470   15.7980    3.9150 C   0  0  0  0  0  0  0  0  0  0  0  0
  2  3  2  0  0  0  0
  2  6  1  0  0  0  0
  2  7  1  0  0  0  0
  6  8  1  0  0  0  0
  1 10  1  0  0  0  0
  8 10  1  0  0  0  0
  1 11  1  0  0  0  0
  4 12  1  0  0  0  0
 11 12  2  0  0  0  0
 12 13  1  0  0  0  0
 13 14  2  0  0  0  0
 14 15  1  0  0  0  0
  5 16  1  0  0  0  0
 11 16  1  0  0  0  0
 15 16  2  0  0  0  0
 10 17  2  0  0  0  0
 17 18  1  0  0  0  0
  9 19  1  0  0  0  0
 18 19  2  0  0  0  0
  8 20  2  0  0  0  0
 19 20  1  0  0  0  0
M  END
$$$$
