7AMC
  PyMOL3.1          3D                             0

 31 34  0  0  0  0  0  0  0  0999 V2000
   18.6610   76.8350   54.8580 Cl  0  0  0  0  0  0  0  0  0  0  0  0
   19.8070   67.9740   49.5340 C   0  0  0  0  0  0  0  0  0  0  0  0
   19.5100   71.2450   53.1990 N   0  0  0  0  0  0  0  0  0  0  0  0
   21.2120   69.8700   47.5620 O   0  0  0  0  0  0  0  0  0  0  0  0
   19.9810   69.4170   49.9380 C   0  0  0  0  0  0  0  0  0  0  0  0
   21.4200   69.7390   49.8060 N   0  0  0  0  0  0  0  0  0  0  0  0
   26.2740   71.1730   59.2260 O   0  0  0  0  0  0  0  0  0  0  0  0
   19.4980   69.6880   51.3420 C   0  0  0  0  0  0  0  0  0  0  0  0
   28.0320   71.6750   58.0370 O   0  0  0  0  0  0  0  0  0  0  0  0
   20.1400   70.9140   51.9420 C   0  0  0  0  0  0  0  0  0  0  0  0
   19.3700   72.5790   53.5800 C   0  0  0  0  0  0  0  0  0  0  0  0
   18.3830   72.8850   54.5090 C   0  0  0  0  0  0  0  0  0  0  0  0
   18.2190   74.1830   54.9110 C   0  0  0  0  0  0  0  0  0  0  0  0
   18.9760   75.1830   54.3690 C   0  0  0  0  0  0  0  0  0  0  0  0
   19.9500   74.8910   53.4420 C   0  0  0  0  0  0  0  0  0  0  0  0
   20.1630   73.5780   53.0400 C   0  0  0  0  0  0  0  0  0  0  0  0
   21.6210   70.5640   52.1030 C   0  0  0  0  0  0  0  0  0  0  0  0
   22.3250   70.7410   53.2870 C   0  0  0  0  0  0  0  0  0  0  0  0
   23.6420   70.3210   53.3720 C   0  0  0  0  0  0  0  0  0  0  0  0
   24.2400   69.6400   52.3170 C   0  0  0  0  0  0  0  0  0  0  0  0
   23.5210   69.4310   51.1540 C   0  0  0  0  0  0  0  0  0  0  0  0
   22.2550   69.9220   51.0410 C   0  0  0  0  0  0  0  0  0  0  0  0
   21.9290   70.0230   48.5160 C   0  0  0  0  0  0  0  0  0  0  0  0
   23.3960   70.4330   48.3460 C   0  0  0  0  0  0  0  0  0  0  0  0
   24.4890   70.5390   54.6400 C   0  0  0  0  0  0  0  0  0  0  0  0
   25.8650   70.5970   54.5540 C   0  0  0  0  0  0  0  0  0  0  0  0
   26.6460   70.8320   55.6720 C   0  0  0  0  0  0  0  0  0  0  0  0
   26.0100   71.0720   56.8870 C   0  0  0  0  0  0  0  0  0  0  0  0
   24.6350   71.0480   56.9620 C   0  0  0  0  0  0  0  0  0  0  0  0
   23.8780   70.8140   55.8430 C   0  0  0  0  0  0  0  0  0  0  0  0
   26.8250   71.3130   58.1300 C   0  0  0  0  0  0  0  0  0  0  0  0
  2  5  1  0  0  0  0
  5  6  1  0  0  0  0
  5  8  1  0  0  0  0
  3 10  1  0  0  0  0
  8 10  1  0  0  0  0
  3 11  1  0  0  0  0
 11 12  2  0  0  0  0
 12 13  1  0  0  0  0
  1 14  1  0  0  0  0
 13 14  2  0  0  0  0
 14 15  1  0  0  0  0
 11 16  1  0  0  0  0
 15 16  2  0  0  0  0
 10 17  1  0  0  0  0
 17 18  2  0  0  0  0
 18 19  1  0  0  0  0
 19 20  2  0  0  0  0
 20 21  1  0  0  0  0
  6 22  1  0  0  0  0
 17 22  1  0  0  0  0
 21 22  2  0  0  0  0
  4 23  2  0  0  0  0
  6 23  1  0  0  0  0
 23 24  1  0  0  0  0
 19 25  1  0  0  0  0
 25 26  2  0  0  0  0
 26 27  1  0  0  0  0
 27 28  2  0  0  0  0
 28 29  1  0  0  0  0
 25 30  1  0  0  0  0
 29 30  2  0  0  0  0
  7 31  2  0  0  0  0
  9 31  1  0  0  0  0
 28 31  1  0  0  0  0
M  END
$$$$
