8DD2
  PyMOL3.1          3D                             0

 23 25  0  0  0  0  0  0  0  0999 V2000
  102.0620  121.8820  132.7020 C   0  0  0  0  0  0  0  0  0  0  0  0
  101.1850  122.9700  132.0500 C   0  0  0  0  0  0  0  0  0  0  0  0
  101.3210  124.2970  132.4520 C   0  0  0  0  0  0  0  0  0  0  0  0
  100.5190  125.2840  131.8600 C   0  0  0  0  0  0  0  0  0  0  0  0
   99.5940  124.9360  130.8830 C   0  0  0  0  0  0  0  0  0  0  0  0
   99.4630  123.6110  130.4800 C   0  0  0  0  0  0  0  0  0  0  0  0
  100.2630  122.6220  131.0710 C   0  0  0  0  0  0  0  0  0  0  0  0
   98.7590  125.9940  130.2560 C   0  0  0  0  0  0  0  0  0  0  0  0
   97.7200  126.6910  130.8410 C   0  0  0  0  0  0  0  0  0  0  0  0
   97.2560  127.5620  129.8910 N   0  0  0  0  0  0  0  0  0  0  0  0
   96.2470  128.4730  129.9400 C   0  0  0  0  0  0  0  0  0  0  0  0
   95.9320  129.2800  128.8300 C   0  0  0  0  0  0  0  0  0  0  0  0
   96.6680  129.1300  127.6770 C   0  0  0  0  0  0  0  0  0  0  0  0
   97.6880  128.2020  127.6220 C   0  0  0  0  0  0  0  0  0  0  0  0
   97.9820  127.4040  128.7720 C   0  0  0  0  0  0  0  0  0  0  0  0
   98.8950  126.4600  128.9760 N   0  0  0  0  0  0  0  0  0  0  0  0
   94.7920  130.3110  128.8990 C   0  0  0  0  0  0  0  0  0  0  0  0
   97.2080  126.5130  132.2400 C   0  0  0  0  0  0  0  0  0  0  0  0
   95.8000  125.9370  132.2620 C   0  0  0  0  0  0  0  0  0  0  0  0
   95.1580  125.8690  131.2180 O   0  0  0  0  0  0  0  0  0  0  0  0
   95.2430  125.5020  133.4030 N   0  0  0  0  0  0  0  0  0  0  0  0
   95.9680  125.5640  134.6630 C   0  0  0  0  0  0  0  0  0  0  0  0
   93.8960  124.9610  133.3840 C   0  0  0  0  0  0  0  0  0  0  0  0
  1  2  1  0  0  0  0
  2  3  1  0  0  0  0
  3  4  2  0  0  0  0
  4  5  1  0  0  0  0
  5  6  2  0  0  0  0
  2  7  2  0  0  0  0
  6  7  1  0  0  0  0
  5  8  1  0  0  0  0
  8  9  2  0  0  0  0
  9 10  1  0  0  0  0
 10 11  1  0  0  0  0
 11 12  2  0  0  0  0
 12 13  1  0  0  0  0
 13 14  2  0  0  0  0
 10 15  1  0  0  0  0
 14 15  1  0  0  0  0
  8 16  1  0  0  0  0
 15 16  2  0  0  0  0
 12 17  1  0  0  0  0
  9 18  1  0  0  0  0
 18 19  1  0  0  0  0
 19 20  2  0  0  0  0
 19 21  1  0  0  0  0
 21 22  1  0  0  0  0
 21 23  1  0  0  0  0
M  END
$$$$
