7WRE
  PyMOL3.1          3D                             0

 23 25  0  0  0  0  0  0  0  0999 V2000
  125.9250   92.4680  162.6250 C   0  0  0  0  0  0  0  0  0  0  0  0
  127.3440   92.3680  162.9550 C   0  0  0  0  0  0  0  0  0  0  0  0
  127.8450   91.0350  163.2070 C   0  0  0  0  0  0  0  0  0  0  0  0
  127.5030   90.0270  162.2680 N   0  0  0  0  0  0  0  0  0  0  0  0
  126.3000   90.2700  161.4450 C   0  0  0  0  0  0  0  0  0  0  0  0
  125.9780   89.4690  160.6440 O   0  0  0  0  0  0  0  0  0  0  0  0
  125.4820   91.4990  161.6080 N   0  0  0  0  0  0  0  0  0  0  0  0
  124.3070   91.8050  160.8560 C   0  0  0  0  0  0  0  0  0  0  0  0
  123.0800   91.6510  161.4390 C   0  0  0  0  0  0  0  0  0  0  0  0
  121.9580   91.9800  160.7140 C   0  0  0  0  0  0  0  0  0  0  0  0
  122.0660   92.4590  159.4270 C   0  0  0  0  0  0  0  0  0  0  0  0
  123.3060   92.6240  158.8550 C   0  0  0  0  0  0  0  0  0  0  0  0
  124.4250   92.2970  159.5800 C   0  0  0  0  0  0  0  0  0  0  0  0
  125.6910   92.4610  159.0210 O   0  0  0  0  0  0  0  0  0  0  0  0
  128.9090   90.8990  164.2700 C   0  0  0  0  0  0  0  0  0  0  0  0
  129.4640   92.0570  164.7470 C   0  0  0  0  0  0  0  0  0  0  0  0
  130.4270   92.0060  165.7260 C   0  0  0  0  0  0  0  0  0  0  0  0
  130.8320   90.7860  166.2360 C   0  0  0  0  0  0  0  0  0  0  0  0
  130.2590   89.6210  165.7570 C   0  0  0  0  0  0  0  0  0  0  0  0
  129.2980   89.6830  164.7660 C   0  0  0  0  0  0  0  0  0  0  0  0
  130.9950   93.2580  166.1790 N   0  0  0  0  0  0  0  0  0  0  0  0
  131.7290   93.3010  167.0950 O   0  0  0  0  0  0  0  0  0  0  0  0
  130.6680   94.4230  165.4780 O   0  0  0  0  0  0  0  0  0  0  0  0
  1  2  1  0  0  0  0
  2  3  2  0  0  0  0
  3  4  1  0  0  0  0
  4  5  1  0  0  0  0
  5  6  2  0  0  0  0
  1  7  1  0  0  0  0
  5  7  1  0  0  0  0
  7  8  1  0  0  0  0
  8  9  2  0  0  0  0
  9 10  1  0  0  0  0
 10 11  2  0  0  0  0
 11 12  1  0  0  0  0
  8 13  1  0  0  0  0
 12 13  2  0  0  0  0
 13 14  1  0  0  0  0
  3 15  1  0  0  0  0
 15 16  1  0  0  0  0
 16 17  2  0  0  0  0
 17 18  1  0  0  0  0
 18 19  2  0  0  0  0
 15 20  2  0  0  0  0
 19 20  1  0  0  0  0
 17 21  1  0  0  0  0
 21 22  1  0  0  0  0
 21 23  2  0  0  0  0
M  END
$$$$
