7WRE
  PyMOL3.1          3D                             0

 23 25  0  0  0  0  0  0  0  0999 V2000
  161.0330  125.9240  162.6250 C   0  0  0  0  0  0  0  0  0  0  0  0
  161.1320  127.3440  162.9560 C   0  0  0  0  0  0  0  0  0  0  0  0
  162.4660  127.8450  163.2080 C   0  0  0  0  0  0  0  0  0  0  0  0
  163.4730  127.5030  162.2690 N   0  0  0  0  0  0  0  0  0  0  0  0
  163.2310  126.3000  161.4460 C   0  0  0  0  0  0  0  0  0  0  0  0
  164.0320  125.9770  160.6450 O   0  0  0  0  0  0  0  0  0  0  0  0
  162.0020  125.4810  161.6090 N   0  0  0  0  0  0  0  0  0  0  0  0
  161.6950  124.3060  160.8570 C   0  0  0  0  0  0  0  0  0  0  0  0
  161.8490  123.0800  161.4400 C   0  0  0  0  0  0  0  0  0  0  0  0
  161.5210  121.9570  160.7150 C   0  0  0  0  0  0  0  0  0  0  0  0
  161.0420  122.0660  159.4280 C   0  0  0  0  0  0  0  0  0  0  0  0
  160.8770  123.3060  158.8560 C   0  0  0  0  0  0  0  0  0  0  0  0
  161.2030  124.4250  159.5810 C   0  0  0  0  0  0  0  0  0  0  0  0
  161.0390  125.6900  159.0220 O   0  0  0  0  0  0  0  0  0  0  0  0
  162.6020  128.9080  164.2700 C   0  0  0  0  0  0  0  0  0  0  0  0
  161.4440  129.4630  164.7470 C   0  0  0  0  0  0  0  0  0  0  0  0
  161.4940  130.4270  165.7270 C   0  0  0  0  0  0  0  0  0  0  0  0
  162.7150  130.8320  166.2370 C   0  0  0  0  0  0  0  0  0  0  0  0
  163.8800  130.2590  165.7570 C   0  0  0  0  0  0  0  0  0  0  0  0
  163.8170  129.2980  164.7670 C   0  0  0  0  0  0  0  0  0  0  0  0
  160.2420  130.9950  166.1790 N   0  0  0  0  0  0  0  0  0  0  0  0
  160.1990  131.7290  167.0960 O   0  0  0  0  0  0  0  0  0  0  0  0
  159.0770  130.6680  165.4780 O   0  0  0  0  0  0  0  0  0  0  0  0
  1  2  1  0  0  0  0
  1  7  1  0  0  0  0
  2  3  1  0  0  0  0
  3  4  1  0  0  0  0
  3 15  1  0  0  0  0
  4  5  1  0  0  0  0
  5  6  2  0  0  0  0
  5  7  1  0  0  0  0
  7  8  1  0  0  0  0
  8  9  4  0  0  0  0
  8 13  4  0  0  0  0
  9 10  4  0  0  0  0
 10 11  4  0  0  0  0
 11 12  4  0  0  0  0
 12 13  4  0  0  0  0
 13 14  1  0  0  0  0
 15 16  4  0  0  0  0
 15 20  4  0  0  0  0
 16 17  4  0  0  0  0
 17 18  4  0  0  0  0
 17 21  1  0  0  0  0
 18 19  4  0  0  0  0
 19 20  4  0  0  0  0
 21 22  4  0  0  0  0
 21 23  4  0  0  0  0
M  END
$$$$
