8X94
  PyMOL3.1          3D                             0

 92100  0  0  0  0  0  0  0  0999 V2000
  146.0380  110.9910  141.7810 O   0  0  0  0  0  0  0  0  0  0  0  0
  147.6640  112.1150  147.6240 O   0  0  0  0  0  0  0  0  0  0  0  0
  145.2780  113.0170  141.8940 N   0  0  0  0  0  0  0  0  0  0  0  0
  145.5270  114.1640  143.9210 N   0  0  0  0  0  0  0  0  0  0  0  0
  142.6700  112.4030  135.5630 N   0  0  0  0  0  0  0  0  0  0  0  0
  144.3880  115.3600  142.0690 C   0  0  0  0  0  0  0  0  0  0  0  0
  145.0850  114.1300  142.6460 C   0  0  0  0  0  0  0  0  0  0  0  0
  146.3140  111.9990  143.7000 C   0  0  0  0  0  0  0  0  0  0  0  0
  145.8760  111.9660  142.4240 C   0  0  0  0  0  0  0  0  0  0  0  0
  146.1320  113.1200  144.4460 C   0  0  0  0  0  0  0  0  0  0  0  0
  144.7930  112.9340  140.5260 C   0  0  0  0  0  0  0  0  0  0  0  0
  145.3260  116.5590  142.1540 C   0  0  0  0  0  0  0  0  0  0  0  0
  143.1060  115.6480  142.8420 C   0  0  0  0  0  0  0  0  0  0  0  0
  146.9530  110.8920  144.2460 C   0  0  0  0  0  0  0  0  0  0  0  0
  146.5800  113.1620  145.7590 C   0  0  0  0  0  0  0  0  0  0  0  0
  145.4820  113.4510  139.4400 C   0  0  0  0  0  0  0  0  0  0  0  0
  143.5850  112.2890  140.3260 C   0  0  0  0  0  0  0  0  0  0  0  0
  147.2110  112.0660  146.3030 C   0  0  0  0  0  0  0  0  0  0  0  0
  147.3970  110.9320  145.5490 C   0  0  0  0  0  0  0  0  0  0  0  0
  144.9470  113.3250  138.1670 C   0  0  0  0  0  0  0  0  0  0  0  0
  143.0530  112.1620  139.0610 C   0  0  0  0  0  0  0  0  0  0  0  0
  143.7340  112.6780  137.9780 C   0  0  0  0  0  0  0  0  0  0  0  0
  143.1280  112.5230  136.5890 C   0  0  0  0  0  0  0  0  0  0  0  0
  110.9910  125.9620  141.7800 O   0  0  0  0  0  0  0  0  0  0  0  0
  112.1150  124.3360  147.6230 O   0  0  0  0  0  0  0  0  0  0  0  0
  113.0170  126.7230  141.8930 N   0  0  0  0  0  0  0  0  0  0  0  0
  114.1640  126.4730  143.9200 N   0  0  0  0  0  0  0  0  0  0  0  0
  112.4040  129.3290  135.5610 N   0  0  0  0  0  0  0  0  0  0  0  0
  115.3610  127.6120  142.0690 C   0  0  0  0  0  0  0  0  0  0  0  0
  114.1300  126.9150  142.6450 C   0  0  0  0  0  0  0  0  0  0  0  0
  112.0000  125.6860  143.6990 C   0  0  0  0  0  0  0  0  0  0  0  0
  111.9660  126.1240  142.4230 C   0  0  0  0  0  0  0  0  0  0  0  0
  113.1200  125.8690  144.4450 C   0  0  0  0  0  0  0  0  0  0  0  0
  112.9350  127.2070  140.5250 C   0  0  0  0  0  0  0  0  0  0  0  0
  116.5590  126.6740  142.1520 C   0  0  0  0  0  0  0  0  0  0  0  0
  115.6490  128.8940  142.8420 C   0  0  0  0  0  0  0  0  0  0  0  0
  110.8920  125.0480  144.2450 C   0  0  0  0  0  0  0  0  0  0  0  0
  113.1620  125.4210  145.7580 C   0  0  0  0  0  0  0  0  0  0  0  0
  113.4520  126.5190  139.4390 C   0  0  0  0  0  0  0  0  0  0  0  0
  112.2890  128.4150  140.3250 C   0  0  0  0  0  0  0  0  0  0  0  0
  112.0660  124.7900  146.3020 C   0  0  0  0  0  0  0  0  0  0  0  0
  110.9320  124.6030  145.5480 C   0  0  0  0  0  0  0  0  0  0  0  0
  113.3250  127.0530  138.1660 C   0  0  0  0  0  0  0  0  0  0  0  0
  112.1620  128.9460  139.0590 C   0  0  0  0  0  0  0  0  0  0  0  0
  112.6780  128.2650  137.9770 C   0  0  0  0  0  0  0  0  0  0  0  0
  112.5240  128.8710  136.5880 C   0  0  0  0  0  0  0  0  0  0  0  0
  161.0100  146.0370  141.7810 O   0  0  0  0  0  0  0  0  0  0  0  0
  159.8840  147.6630  147.6240 O   0  0  0  0  0  0  0  0  0  0  0  0
  158.9840  145.2770  141.8940 N   0  0  0  0  0  0  0  0  0  0  0  0
  157.8360  145.5260  143.9210 N   0  0  0  0  0  0  0  0  0  0  0  0
  159.5950  142.6690  135.5620 N   0  0  0  0  0  0  0  0  0  0  0  0
  156.6400  144.3880  142.0680 C   0  0  0  0  0  0  0  0  0  0  0  0
  157.8710  145.0840  142.6450 C   0  0  0  0  0  0  0  0  0  0  0  0
  160.0010  146.3130  143.7000 C   0  0  0  0  0  0  0  0  0  0  0  0
  160.0350  145.8750  142.4240 C   0  0  0  0  0  0  0  0  0  0  0  0
  158.8800  146.1310  144.4460 C   0  0  0  0  0  0  0  0  0  0  0  0
  159.0660  144.7930  140.5260 C   0  0  0  0  0  0  0  0  0  0  0  0
  155.4410  145.3240  142.1580 C   0  0  0  0  0  0  0  0  0  0  0  0
  156.3550  143.1020  142.8350 C   0  0  0  0  0  0  0  0  0  0  0  0
  161.1080  146.9520  144.2460 C   0  0  0  0  0  0  0  0  0  0  0  0
  158.8380  146.5790  145.7590 C   0  0  0  0  0  0  0  0  0  0  0  0
  158.5510  145.4820  139.4390 C   0  0  0  0  0  0  0  0  0  0  0  0
  159.7090  143.5830  140.3260 C   0  0  0  0  0  0  0  0  0  0  0  0
  159.9330  147.2100  146.3030 C   0  0  0  0  0  0  0  0  0  0  0  0
  161.0670  147.3960  145.5500 C   0  0  0  0  0  0  0  0  0  0  0  0
  158.6770  144.9470  138.1670 C   0  0  0  0  0  0  0  0  0  0  0  0
  159.8360  143.0510  139.0610 C   0  0  0  0  0  0  0  0  0  0  0  0
  159.3220  143.7330  137.9780 C   0  0  0  0  0  0  0  0  0  0  0  0
  159.4760  143.1270  136.5890 C   0  0  0  0  0  0  0  0  0  0  0  0
  125.9620  161.0100  141.7800 O   0  0  0  0  0  0  0  0  0  0  0  0
  124.3380  159.8840  147.6240 O   0  0  0  0  0  0  0  0  0  0  0  0
  126.7230  158.9830  141.8930 N   0  0  0  0  0  0  0  0  0  0  0  0
  126.4740  157.8360  143.9200 N   0  0  0  0  0  0  0  0  0  0  0  0
  129.3300  159.5940  135.5610 N   0  0  0  0  0  0  0  0  0  0  0  0
  127.6120  156.6400  142.0680 C   0  0  0  0  0  0  0  0  0  0  0  0
  126.9150  157.8710  142.6450 C   0  0  0  0  0  0  0  0  0  0  0  0
  125.6870  160.0010  143.6990 C   0  0  0  0  0  0  0  0  0  0  0  0
  126.1240  160.0350  142.4240 C   0  0  0  0  0  0  0  0  0  0  0  0
  125.8690  158.8800  144.4450 C   0  0  0  0  0  0  0  0  0  0  0  0
  127.2070  159.0660  140.5250 C   0  0  0  0  0  0  0  0  0  0  0  0
  126.6750  155.4410  142.1580 C   0  0  0  0  0  0  0  0  0  0  0  0
  128.8980  156.3540  142.8350 C   0  0  0  0  0  0  0  0  0  0  0  0
  125.0490  161.1080  144.2460 C   0  0  0  0  0  0  0  0  0  0  0  0
  125.4220  158.8380  145.7580 C   0  0  0  0  0  0  0  0  0  0  0  0
  126.5170  158.5510  139.4390 C   0  0  0  0  0  0  0  0  0  0  0  0
  128.4160  159.7080  140.3250 C   0  0  0  0  0  0  0  0  0  0  0  0
  124.7910  159.9340  146.3030 C   0  0  0  0  0  0  0  0  0  0  0  0
  124.6040  161.0670  145.5490 C   0  0  0  0  0  0  0  0  0  0  0  0
  127.0520  158.6770  138.1660 C   0  0  0  0  0  0  0  0  0  0  0  0
  128.9490  159.8350  139.0600 C   0  0  0  0  0  0  0  0  0  0  0  0
  128.2660  159.3210  137.9770 C   0  0  0  0  0  0  0  0  0  0  0  0
  128.8720  159.4750  136.5880 C   0  0  0  0  0  0  0  0  0  0  0  0
  3  7  1  0  0  0  0
  4  7  2  0  0  0  0
  6  7  1  0  0  0  0
  1  9  2  0  0  0  0
  3  9  1  0  0  0  0
  8  9  1  0  0  0  0
  4 10  1  0  0  0  0
  8 10  2  0  0  0  0
  3 11  1  0  0  0  0
  6 12  1  0  0  0  0
  6 13  1  0  0  0  0
  8 14  1  0  0  0  0
 10 15  1  0  0  0  0
 11 16  1  0  0  0  0
 11 17  2  0  0  0  0
  2 18  1  0  0  0  0
 15 18  2  0  0  0  0
 14 19  2  0  0  0  0
 18 19  1  0  0  0  0
 16 20  2  0  0  0  0
 17 21  1  0  0  0  0
 20 22  1  0  0  0  0
 21 22  2  0  0  0  0
  5 23  3  0  0  0  0
 22 23  1  0  0  0  0
 26 30  1  0  0  0  0
 27 30  2  0  0  0  0
 29 30  1  0  0  0  0
 24 32  2  0  0  0  0
 26 32  1  0  0  0  0
 31 32  1  0  0  0  0
 27 33  1  0  0  0  0
 31 33  2  0  0  0  0
 26 34  1  0  0  0  0
 29 35  1  0  0  0  0
 29 36  1  0  0  0  0
 31 37  1  0  0  0  0
 33 38  1  0  0  0  0
 34 39  1  0  0  0  0
 34 40  2  0  0  0  0
 25 41  1  0  0  0  0
 38 41  2  0  0  0  0
 37 42  2  0  0  0  0
 41 42  1  0  0  0  0
 39 43  2  0  0  0  0
 40 44  1  0  0  0  0
 43 45  1  0  0  0  0
 44 45  2  0  0  0  0
 28 46  3  0  0  0  0
 45 46  1  0  0  0  0
 49 53  1  0  0  0  0
 50 53  2  0  0  0  0
 52 53  1  0  0  0  0
 47 55  2  0  0  0  0
 49 55  1  0  0  0  0
 54 55  1  0  0  0  0
 50 56  1  0  0  0  0
 54 56  2  0  0  0  0
 49 57  1  0  0  0  0
 52 58  1  0  0  0  0
 52 59  1  0  0  0  0
 54 60  1  0  0  0  0
 56 61  1  0  0  0  0
 57 62  1  0  0  0  0
 57 63  2  0  0  0  0
 48 64  1  0  0  0  0
 61 64  2  0  0  0  0
 60 65  2  0  0  0  0
 64 65  1  0  0  0  0
 62 66  2  0  0  0  0
 63 67  1  0  0  0  0
 66 68  1  0  0  0  0
 67 68  2  0  0  0  0
 51 69  3  0  0  0  0
 68 69  1  0  0  0  0
 72 76  1  0  0  0  0
 73 76  2  0  0  0  0
 75 76  1  0  0  0  0
 70 78  2  0  0  0  0
 72 78  1  0  0  0  0
 77 78  1  0  0  0  0
 73 79  1  0  0  0  0
 77 79  2  0  0  0  0
 72 80  1  0  0  0  0
 75 81  1  0  0  0  0
 75 82  1  0  0  0  0
 77 83  1  0  0  0  0
 79 84  1  0  0  0  0
 80 85  1  0  0  0  0
 80 86  2  0  0  0  0
 71 87  1  0  0  0  0
 84 87  2  0  0  0  0
 83 88  2  0  0  0  0
 87 88  1  0  0  0  0
 85 89  2  0  0  0  0
 86 90  1  0  0  0  0
 89 91  1  0  0  0  0
 90 91  2  0  0  0  0
 74 92  3  0  0  0  0
 91 92  1  0  0  0  0
M  END
$$$$
