8X94
  PyMOL3.1          3D                             0

 23 25  0  0  0  0  0  0  0  0999 V2000
  125.9620  161.0100  141.7800 O   0  0  0  0  0  0  0  0  0  0  0  0
  124.3380  159.8840  147.6240 O   0  0  0  0  0  0  0  0  0  0  0  0
  126.7230  158.9830  141.8930 N   0  0  0  0  0  0  0  0  0  0  0  0
  126.4740  157.8360  143.9200 N   0  0  0  0  0  0  0  0  0  0  0  0
  129.3300  159.5940  135.5610 N   0  0  0  0  0  0  0  0  0  0  0  0
  127.6120  156.6400  142.0680 C   0  0  0  0  0  0  0  0  0  0  0  0
  126.9150  157.8710  142.6450 C   0  0  0  0  0  0  0  0  0  0  0  0
  125.6870  160.0010  143.6990 C   0  0  0  0  0  0  0  0  0  0  0  0
  126.1240  160.0350  142.4240 C   0  0  0  0  0  0  0  0  0  0  0  0
  125.8690  158.8800  144.4450 C   0  0  0  0  0  0  0  0  0  0  0  0
  127.2070  159.0660  140.5250 C   0  0  0  0  0  0  0  0  0  0  0  0
  126.6750  155.4410  142.1580 C   0  0  0  0  0  0  0  0  0  0  0  0
  128.8980  156.3540  142.8350 C   0  0  0  0  0  0  0  0  0  0  0  0
  125.0490  161.1080  144.2460 C   0  0  0  0  0  0  0  0  0  0  0  0
  125.4220  158.8380  145.7580 C   0  0  0  0  0  0  0  0  0  0  0  0
  126.5170  158.5510  139.4390 C   0  0  0  0  0  0  0  0  0  0  0  0
  128.4160  159.7080  140.3250 C   0  0  0  0  0  0  0  0  0  0  0  0
  124.7910  159.9340  146.3030 C   0  0  0  0  0  0  0  0  0  0  0  0
  124.6040  161.0670  145.5490 C   0  0  0  0  0  0  0  0  0  0  0  0
  127.0520  158.6770  138.1660 C   0  0  0  0  0  0  0  0  0  0  0  0
  128.9490  159.8350  139.0600 C   0  0  0  0  0  0  0  0  0  0  0  0
  128.2660  159.3210  137.9770 C   0  0  0  0  0  0  0  0  0  0  0  0
  128.8720  159.4750  136.5880 C   0  0  0  0  0  0  0  0  0  0  0  0
  3  7  1  0  0  0  0
  4  7  2  0  0  0  0
  6  7  1  0  0  0  0
  1  9  2  0  0  0  0
  3  9  1  0  0  0  0
  8  9  1  0  0  0  0
  4 10  1  0  0  0  0
  8 10  2  0  0  0  0
  3 11  1  0  0  0  0
  6 12  1  0  0  0  0
  6 13  1  0  0  0  0
  8 14  1  0  0  0  0
 10 15  1  0  0  0  0
 11 16  1  0  0  0  0
 11 17  2  0  0  0  0
  2 18  1  0  0  0  0
 15 18  2  0  0  0  0
 14 19  2  0  0  0  0
 18 19  1  0  0  0  0
 16 20  2  0  0  0  0
 17 21  1  0  0  0  0
 20 22  1  0  0  0  0
 21 22  2  0  0  0  0
  5 23  3  0  0  0  0
 22 23  1  0  0  0  0
M  END
$$$$
