8R4U
  PyMOL3.1          3D                             0

 35 39  0  0  0  0  0  0  0  0999 V2000
  -28.1680  -25.0780  -30.1310 Cl  0  0  0  0  0  0  0  0  0  0  0  0
  -21.0590  -26.8690  -25.4440 C   0  0  0  0  0  0  0  0  0  0  0  0
  -22.1390  -27.7600  -25.0620 N   0  0  0  0  0  0  0  0  0  0  0  0
  -23.4310  -27.3380  -25.4540 C   0  0  0  0  0  0  0  0  0  0  0  0
  -24.4410  -28.1540  -25.1060 N   0  0  0  0  0  0  0  0  0  0  0  0
  -25.6850  -27.7670  -25.4460 C   0  0  0  0  0  0  0  0  0  0  0  0
  -25.9900  -26.6040  -26.1330 C   0  0  0  0  0  0  0  0  0  0  0  0
  -27.3520  -26.2410  -26.4970 C   0  0  0  0  0  0  0  0  0  0  0  0
  -27.5940  -25.1080  -27.1700 C   0  0  0  0  0  0  0  0  0  0  0  0
  -26.4550  -24.2050  -27.5600 C   0  0  0  0  0  0  0  0  0  0  0  0
  -26.6890  -23.1810  -28.1790 O   0  0  0  0  0  0  0  0  0  0  0  0
  -25.1660  -24.6130  -27.2100 N   0  0  0  0  0  0  0  0  0  0  0  0
  -24.0740  -23.7670  -27.6110 C   0  0  0  0  0  0  0  0  0  0  0  0
  -23.4590  -24.2340  -28.9160 C   0  0  0  0  0  0  0  0  0  0  0  0
  -24.4540  -24.8460  -29.7600 O   0  0  0  0  0  0  0  0  0  0  0  0
  -24.0100  -25.1920  -31.0850 C   0  0  0  0  0  0  0  0  0  0  0  0
  -23.3430  -24.0210  -31.8150 C   0  0  0  0  0  0  0  0  0  0  0  0
  -22.6340  -24.5350  -32.9700 N   0  0  0  0  0  0  0  0  0  0  0  0
  -22.3120  -23.4150  -30.8620 C   0  0  0  0  0  0  0  0  0  0  0  0
  -22.8640  -23.1060  -29.5750 O   0  0  0  0  0  0  0  0  0  0  0  0
  -24.9070  -25.8220  -26.4900 C   0  0  0  0  0  0  0  0  0  0  0  0
  -23.6500  -26.1920  -26.1420 N   0  0  0  0  0  0  0  0  0  0  0  0
  -28.9730  -24.7560  -27.5740 C   0  0  0  0  0  0  0  0  0  0  0  0
  -29.9190  -24.4430  -26.5920 C   0  0  0  0  0  0  0  0  0  0  0  0
  -31.2180  -24.0850  -26.9610 C   0  0  0  0  0  0  0  0  0  0  0  0
  -31.5870  -24.0290  -28.3100 C   0  0  0  0  0  0  0  0  0  0  0  0
  -30.6390  -24.3350  -29.2890 C   0  0  0  0  0  0  0  0  0  0  0  0
  -29.3440  -24.7090  -28.9200 C   0  0  0  0  0  0  0  0  0  0  0  0
  -32.9260  -23.6060  -28.6970 C   0  0  0  0  0  0  0  0  0  0  0  0
  -32.9750  -22.4140  -29.3350 N   0  0  0  0  0  0  0  0  0  0  0  0
  -34.2000  -21.9520  -29.6790 C   0  0  0  0  0  0  0  0  0  0  0  0
  -35.3890  -22.6220  -29.4410 C   0  0  0  0  0  0  0  0  0  0  0  0
  -35.3080  -23.8440  -28.7890 C   0  0  0  0  0  0  0  0  0  0  0  0
  -34.0700  -24.3320  -28.4050 C   0  0  0  0  0  0  0  0  0  0  0  0
  -34.0110  -25.4980  -27.7650 F   0  0  0  0  0  0  0  0  0  0  0  0
  2  3  1  0  0  0  0
  3  4  1  0  0  0  0
  4  5  2  0  0  0  0
  5  6  1  0  0  0  0
  6  7  2  0  0  0  0
  7  8  1  0  0  0  0
  8  9  2  0  0  0  0
  9 10  1  0  0  0  0
 10 11  2  0  0  0  0
 10 12  1  0  0  0  0
 12 13  1  0  0  0  0
 13 14  1  0  0  0  0
 14 15  1  0  0  0  0
 15 16  1  0  0  0  0
 16 17  1  0  0  0  0
 17 18  1  0  0  0  0
 17 19  1  0  0  0  0
 14 20  1  0  0  0  0
 19 20  1  0  0  0  0
  7 21  1  0  0  0  0
 12 21  1  0  0  0  0
  4 22  1  0  0  0  0
 21 22  2  0  0  0  0
  9 23  1  0  0  0  0
 23 24  2  0  0  0  0
 24 25  1  0  0  0  0
 25 26  2  0  0  0  0
 26 27  1  0  0  0  0
  1 28  1  0  0  0  0
 23 28  1  0  0  0  0
 27 28  2  0  0  0  0
 26 29  1  0  0  0  0
 29 30  2  0  0  0  0
 30 31  1  0  0  0  0
 31 32  2  0  0  0  0
 32 33  1  0  0  0  0
 29 34  1  0  0  0  0
 33 34  2  0  0  0  0
 34 35  1  0  0  0  0
M  END
$$$$
