8R4U
  PyMOL3.1          3D                             0

 35 39  0  0  0  0  0  0  0  0999 V2000
   15.1610  -19.6290  -93.7140 Cl  0  0  0  0  0  0  0  0  0  0  0  0
    8.1240  -21.5200  -98.4320 C   0  0  0  0  0  0  0  0  0  0  0  0
    9.2150  -22.4130  -98.7850 N   0  0  0  0  0  0  0  0  0  0  0  0
   10.5040  -21.9770  -98.4020 C   0  0  0  0  0  0  0  0  0  0  0  0
   11.5150  -22.8000  -98.7220 N   0  0  0  0  0  0  0  0  0  0  0  0
   12.7560  -22.4150  -98.3750 C   0  0  0  0  0  0  0  0  0  0  0  0
   13.0540  -21.2380  -97.7160 C   0  0  0  0  0  0  0  0  0  0  0  0
   14.4080  -20.8730  -97.3450 C   0  0  0  0  0  0  0  0  0  0  0  0
   14.6460  -19.7240  -96.6980 C   0  0  0  0  0  0  0  0  0  0  0  0
   13.5090  -18.8080  -96.3470 C   0  0  0  0  0  0  0  0  0  0  0  0
   13.7480  -17.7690  -95.7530 O   0  0  0  0  0  0  0  0  0  0  0  0
   12.2220  -19.2160  -96.6940 N   0  0  0  0  0  0  0  0  0  0  0  0
   11.1280  -18.3540  -96.3220 C   0  0  0  0  0  0  0  0  0  0  0  0
   10.4930  -18.7730  -95.0150 C   0  0  0  0  0  0  0  0  0  0  0  0
   11.4610  -19.3950  -94.1540 O   0  0  0  0  0  0  0  0  0  0  0  0
   11.0100  -19.6520  -92.8100 C   0  0  0  0  0  0  0  0  0  0  0  0
   10.3990  -18.4250  -92.1200 C   0  0  0  0  0  0  0  0  0  0  0  0
    9.6810  -18.8480  -90.9370 N   0  0  0  0  0  0  0  0  0  0  0  0
    9.3990  -17.8200  -93.1020 C   0  0  0  0  0  0  0  0  0  0  0  0
    9.9830  -17.5890  -94.3920 O   0  0  0  0  0  0  0  0  0  0  0  0
   11.9670  -20.4430  -97.3920 C   0  0  0  0  0  0  0  0  0  0  0  0
   10.7110  -20.8140  -97.7430 N   0  0  0  0  0  0  0  0  0  0  0  0
   16.0160  -19.3640  -96.2710 C   0  0  0  0  0  0  0  0  0  0  0  0
   16.9770  -19.0750  -97.2420 C   0  0  0  0  0  0  0  0  0  0  0  0
   18.2620  -18.6960  -96.8460 C   0  0  0  0  0  0  0  0  0  0  0  0
   18.6110  -18.6060  -95.4950 C   0  0  0  0  0  0  0  0  0  0  0  0
   17.6480  -18.9030  -94.5280 C   0  0  0  0  0  0  0  0  0  0  0  0
   16.3620  -19.2910  -94.9170 C   0  0  0  0  0  0  0  0  0  0  0  0
   19.9380  -18.1620  -95.1010 C   0  0  0  0  0  0  0  0  0  0  0  0
   19.9710  -16.9630  -94.4750 N   0  0  0  0  0  0  0  0  0  0  0  0
   21.1970  -16.5060  -94.1170 C   0  0  0  0  0  0  0  0  0  0  0  0
   22.3900  -17.1790  -94.3310 C   0  0  0  0  0  0  0  0  0  0  0  0
   22.3240  -18.4000  -94.9820 C   0  0  0  0  0  0  0  0  0  0  0  0
   21.0870  -18.8880  -95.3750 C   0  0  0  0  0  0  0  0  0  0  0  0
   21.0220  -20.0670  -96.0050 F   0  0  0  0  0  0  0  0  0  0  0  0
  2  3  1  0  0  0  0
  3  4  1  0  0  0  0
  4  5  2  0  0  0  0
  5  6  1  0  0  0  0
  6  7  2  0  0  0  0
  7  8  1  0  0  0  0
  8  9  2  0  0  0  0
  9 10  1  0  0  0  0
 10 11  2  0  0  0  0
 10 12  1  0  0  0  0
 12 13  1  0  0  0  0
 13 14  1  0  0  0  0
 14 15  1  0  0  0  0
 15 16  1  0  0  0  0
 16 17  1  0  0  0  0
 17 18  1  0  0  0  0
 17 19  1  0  0  0  0
 14 20  1  0  0  0  0
 19 20  1  0  0  0  0
  7 21  1  0  0  0  0
 12 21  1  0  0  0  0
  4 22  1  0  0  0  0
 21 22  2  0  0  0  0
  9 23  1  0  0  0  0
 23 24  2  0  0  0  0
 24 25  1  0  0  0  0
 25 26  2  0  0  0  0
 26 27  1  0  0  0  0
  1 28  1  0  0  0  0
 23 28  1  0  0  0  0
 27 28  2  0  0  0  0
 26 29  1  0  0  0  0
 29 30  2  0  0  0  0
 30 31  1  0  0  0  0
 31 32  2  0  0  0  0
 32 33  1  0  0  0  0
 29 34  1  0  0  0  0
 33 34  2  0  0  0  0
 34 35  1  0  0  0  0
M  END
$$$$
