8R4U
  PyMOL3.1          3D                             0

 35 39  0  0  0  0  0  0  0  0999 V2000
  -47.1110   32.4370  -95.4860 Cl  0  0  0  0  0  0  0  0  0  0  0  0
  -39.9910   33.9880 -100.1980 C   0  0  0  0  0  0  0  0  0  0  0  0
  -41.0900   34.8250 -100.6490 N   0  0  0  0  0  0  0  0  0  0  0  0
  -42.3840   34.3970 -100.2550 C   0  0  0  0  0  0  0  0  0  0  0  0
  -43.4100   35.1700 -100.6640 N   0  0  0  0  0  0  0  0  0  0  0  0
  -44.6550   34.7820 -100.3260 C   0  0  0  0  0  0  0  0  0  0  0  0
  -44.9390   33.6470  -99.5890 C   0  0  0  0  0  0  0  0  0  0  0  0
  -46.2950   33.2910  -99.2140 C   0  0  0  0  0  0  0  0  0  0  0  0
  -46.5280   32.2010  -98.4660 C   0  0  0  0  0  0  0  0  0  0  0  0
  -45.3850   31.3300  -98.0050 C   0  0  0  0  0  0  0  0  0  0  0  0
  -45.6120   30.3490  -97.3140 O   0  0  0  0  0  0  0  0  0  0  0  0
  -44.0990   31.7290  -98.3740 N   0  0  0  0  0  0  0  0  0  0  0  0
  -43.0050   30.9210  -97.9060 C   0  0  0  0  0  0  0  0  0  0  0  0
  -42.3920   31.4790  -96.6390 C   0  0  0  0  0  0  0  0  0  0  0  0
  -43.3920   32.1360  -95.8390 O   0  0  0  0  0  0  0  0  0  0  0  0
  -42.9520   32.5700  -94.5430 C   0  0  0  0  0  0  0  0  0  0  0  0
  -42.2800   31.4510  -93.7450 C   0  0  0  0  0  0  0  0  0  0  0  0
  -41.6050   32.0470  -92.6100 N   0  0  0  0  0  0  0  0  0  0  0  0
  -41.2280   30.7930  -94.6480 C   0  0  0  0  0  0  0  0  0  0  0  0
  -41.7490   30.4100  -95.9260 O   0  0  0  0  0  0  0  0  0  0  0  0
  -43.8450   32.9050  -99.1660 C   0  0  0  0  0  0  0  0  0  0  0  0
  -42.5850   33.2810  -99.5120 N   0  0  0  0  0  0  0  0  0  0  0  0
  -47.9080   31.8840  -98.0280 C   0  0  0  0  0  0  0  0  0  0  0  0
  -48.8580   31.5010  -98.9810 C   0  0  0  0  0  0  0  0  0  0  0  0
  -50.1580   31.1930  -98.5760 C   0  0  0  0  0  0  0  0  0  0  0  0
  -50.5190   31.2520  -97.2260 C   0  0  0  0  0  0  0  0  0  0  0  0
  -49.5730   31.6370  -96.2740 C   0  0  0  0  0  0  0  0  0  0  0  0
  -48.2760   31.9650  -96.6770 C   0  0  0  0  0  0  0  0  0  0  0  0
  -51.8580   30.8800  -96.8000 C   0  0  0  0  0  0  0  0  0  0  0  0
  -51.9060   29.7560  -96.0480 N   0  0  0  0  0  0  0  0  0  0  0  0
  -53.1230   29.3330  -95.6400 C   0  0  0  0  0  0  0  0  0  0  0  0
  -54.3110   29.9850  -95.9280 C   0  0  0  0  0  0  0  0  0  0  0  0
  -54.2370   31.1340  -96.7070 C   0  0  0  0  0  0  0  0  0  0  0  0
  -52.9990   31.5830  -97.1550 C   0  0  0  0  0  0  0  0  0  0  0  0
  -52.9240   32.6910  -97.9030 F   0  0  0  0  0  0  0  0  0  0  0  0
  2  3  1  0  0  0  0
  3  4  1  0  0  0  0
  4  5  2  0  0  0  0
  5  6  1  0  0  0  0
  6  7  2  0  0  0  0
  7  8  1  0  0  0  0
  8  9  2  0  0  0  0
  9 10  1  0  0  0  0
 10 11  2  0  0  0  0
 10 12  1  0  0  0  0
 12 13  1  0  0  0  0
 13 14  1  0  0  0  0
 14 15  1  0  0  0  0
 15 16  1  0  0  0  0
 16 17  1  0  0  0  0
 17 18  1  0  0  0  0
 17 19  1  0  0  0  0
 14 20  1  0  0  0  0
 19 20  1  0  0  0  0
  7 21  1  0  0  0  0
 12 21  1  0  0  0  0
  4 22  1  0  0  0  0
 21 22  2  0  0  0  0
  9 23  1  0  0  0  0
 23 24  2  0  0  0  0
 24 25  1  0  0  0  0
 25 26  2  0  0  0  0
 26 27  1  0  0  0  0
  1 28  1  0  0  0  0
 23 28  1  0  0  0  0
 27 28  2  0  0  0  0
 26 29  1  0  0  0  0
 29 30  2  0  0  0  0
 30 31  1  0  0  0  0
 31 32  2  0  0  0  0
 32 33  1  0  0  0  0
 29 34  1  0  0  0  0
 33 34  2  0  0  0  0
 34 35  1  0  0  0  0
M  END
$$$$
