9FQJ
  PyMOL3.1          3D                             0

 54 60  0  0  0  0  0  0  0  0999 V2000
   17.7710   20.6490   12.5840 N   0  0  0  0  0  0  0  0  0  0  0  0
   19.4010   24.1560   14.3190 C   0  0  0  0  0  0  0  0  0  0  0  0
   20.7670   20.6060   10.6710 O   0  0  0  0  0  0  0  0  0  0  0  0
   18.8580   22.9090   13.6800 C   0  0  0  0  0  0  0  0  0  0  0  0
   17.6610   22.4720   14.1250 N   0  0  0  0  0  0  0  0  0  0  0  0
   23.8200   16.8000   11.9150 O   0  0  0  0  0  0  0  0  0  0  0  0
   19.5430   22.2350   12.6830 C   0  0  0  0  0  0  0  0  0  0  0  0
   18.9100   19.2650   10.6360 N   0  0  0  0  0  0  0  0  0  0  0  0
   23.1510   16.6750    9.8250 O   0  0  0  0  0  0  0  0  0  0  0  0
   18.9590   21.1000   12.1590 C   0  0  0  0  0  0  0  0  0  0  0  0
   22.6080   14.9990   11.3290 N   0  0  0  0  0  0  0  0  0  0  0  0
   17.1740   21.3520   13.5500 C   0  0  0  0  0  0  0  0  0  0  0  0
   15.8460   20.8050   13.9990 C   0  0  0  0  0  0  0  0  0  0  0  0
   14.8940   20.2460   12.9720 C   0  0  0  0  0  0  0  0  0  0  0  0
   15.5980   19.3210   13.8960 C   0  0  0  0  0  0  0  0  0  0  0  0
   19.6460   20.3070   11.0800 C   0  0  0  0  0  0  0  0  0  0  0  0
   19.2950   18.1720    9.8310 C   0  0  0  0  0  0  0  0  0  0  0  0
   18.2710   17.5610    9.1190 C   0  0  0  0  0  0  0  0  0  0  0  0
   18.5550   16.4750    8.3090 C   0  0  0  0  0  0  0  0  0  0  0  0
   19.8530   16.0120    8.1990 C   0  0  0  0  0  0  0  0  0  0  0  0
   20.8870   16.6140    8.9060 C   0  0  0  0  0  0  0  0  0  0  0  0
   20.6030   17.7020    9.7280 C   0  0  0  0  0  0  0  0  0  0  0  0
   22.3120   16.0770    8.7810 C   0  0  0  0  0  0  0  0  0  0  0  0
   22.3050   14.5530    8.9540 C   0  0  0  0  0  0  0  0  0  0  0  0
   21.8760   14.1800   10.3600 C   0  0  0  0  0  0  0  0  0  0  0  0
   23.2180   16.1640   11.0840 C   0  0  0  0  0  0  0  0  0  0  0  0
   22.9380   16.4890    7.4540 C   0  0  0  0  0  0  0  0  0  0  0  0
   25.5250   10.8680   63.8380 N   0  0  0  0  0  0  0  0  0  0  0  0
   23.8380    7.4110   65.6350 C   0  0  0  0  0  0  0  0  0  0  0  0
   22.5300   10.9150   61.9230 O   0  0  0  0  0  0  0  0  0  0  0  0
   24.4030    8.6410   64.9750 C   0  0  0  0  0  0  0  0  0  0  0  0
   25.6080    9.0650   65.4090 N   0  0  0  0  0  0  0  0  0  0  0  0
   19.4930   14.7290   63.0870 O   0  0  0  0  0  0  0  0  0  0  0  0
   23.7280    9.3110   63.9650 C   0  0  0  0  0  0  0  0  0  0  0  0
   24.3930   12.2580   61.8740 N   0  0  0  0  0  0  0  0  0  0  0  0
   20.1470   14.8250   60.9880 O   0  0  0  0  0  0  0  0  0  0  0  0
   24.3300   10.4310   63.4220 C   0  0  0  0  0  0  0  0  0  0  0  0
   20.6810   16.5280   62.4610 N   0  0  0  0  0  0  0  0  0  0  0  0
   26.1120   10.1670   64.8120 C   0  0  0  0  0  0  0  0  0  0  0  0
   27.4440   10.6880   65.2540 C   0  0  0  0  0  0  0  0  0  0  0  0
   28.3930   11.2410   64.2240 C   0  0  0  0  0  0  0  0  0  0  0  0
   27.7080   12.1690   65.1550 C   0  0  0  0  0  0  0  0  0  0  0  0
   23.6500   11.2140   62.3320 C   0  0  0  0  0  0  0  0  0  0  0  0
   24.0090   13.3320   61.0400 C   0  0  0  0  0  0  0  0  0  0  0  0
   25.0320   13.9320   60.3160 C   0  0  0  0  0  0  0  0  0  0  0  0
   24.7500   14.9960   59.4770 C   0  0  0  0  0  0  0  0  0  0  0  0
   23.4510   15.4570   59.3530 C   0  0  0  0  0  0  0  0  0  0  0  0
   22.4190   14.8680   60.0730 C   0  0  0  0  0  0  0  0  0  0  0  0
   22.7020   13.8010   60.9210 C   0  0  0  0  0  0  0  0  0  0  0  0
   20.9930   15.3990   59.9350 C   0  0  0  0  0  0  0  0  0  0  0  0
   21.0060   16.9250   60.0760 C   0  0  0  0  0  0  0  0  0  0  0  0
   21.4050   17.3370   61.4790 C   0  0  0  0  0  0  0  0  0  0  0  0
   20.0840   15.3520   62.2420 C   0  0  0  0  0  0  0  0  0  0  0  0
   20.3920   14.9620   58.6000 C   0  0  0  0  0  0  0  0  0  0  0  0
  2  4  1  0  0  0  0
  4  5  1  0  0  0  0
  4  7  2  0  0  0  0
  1 10  2  0  0  0  0
  7 10  1  0  0  0  0
  1 12  1  0  0  0  0
  5 12  2  0  0  0  0
 12 13  1  0  0  0  0
 13 14  1  0  0  0  0
 13 15  1  0  0  0  0
 14 15  1  0  0  0  0
  3 16  2  0  0  0  0
  8 16  1  0  0  0  0
 10 16  1  0  0  0  0
  8 17  1  0  0  0  0
 17 18  2  0  0  0  0
 18 19  1  0  0  0  0
 19 20  2  0  0  0  0
 20 21  1  0  0  0  0
 17 22  1  0  0  0  0
 21 22  2  0  0  0  0
  9 23  1  0  0  0  0
 21 23  1  0  0  0  0
 23 24  1  0  0  0  0
 11 25  1  0  0  0  0
 24 25  1  0  0  0  0
  6 26  2  0  0  0  0
  9 26  1  0  0  0  0
 11 26  1  0  0  0  0
 23 27  1  0  0  0  0
 29 31  1  0  0  0  0
 31 32  1  0  0  0  0
 31 34  2  0  0  0  0
 28 37  2  0  0  0  0
 34 37  1  0  0  0  0
 28 39  1  0  0  0  0
 32 39  2  0  0  0  0
 39 40  1  0  0  0  0
 40 41  1  0  0  0  0
 40 42  1  0  0  0  0
 41 42  1  0  0  0  0
 30 43  2  0  0  0  0
 35 43  1  0  0  0  0
 37 43  1  0  0  0  0
 35 44  1  0  0  0  0
 44 45  2  0  0  0  0
 45 46  1  0  0  0  0
 46 47  2  0  0  0  0
 47 48  1  0  0  0  0
 44 49  1  0  0  0  0
 48 49  2  0  0  0  0
 36 50  1  0  0  0  0
 48 50  1  0  0  0  0
 50 51  1  0  0  0  0
 38 52  1  0  0  0  0
 51 52  1  0  0  0  0
 33 53  2  0  0  0  0
 36 53  1  0  0  0  0
 38 53  1  0  0  0  0
 50 54  1  0  0  0  0
M  END
$$$$
