7NA8
  PyMOL3.1          3D                             0

 37 40  0  0  0  0  0  0  0  0999 V2000
  125.7590  138.9450   93.4330 O   0  0  0  0  0  0  0  0  0  0  0  0
  126.0980  137.8670   93.7890 C   0  0  0  0  0  0  0  0  0  0  0  0
  126.9810  137.7280   95.0210 C   0  0  0  0  0  0  0  0  0  0  0  0
  126.1560  137.3810   96.1550 N   0  0  0  0  0  0  0  0  0  0  0  0
  126.5400  136.3380   97.0820 C   0  0  0  0  0  0  0  0  0  0  0  0
  127.5410  135.7300   96.9250 O   0  0  0  0  0  0  0  0  0  0  0  0
  125.6230  136.0370   98.2610 C   0  0  0  0  0  0  0  0  0  0  0  0
  124.2520  136.0210   97.7850 N   0  0  0  0  0  0  0  0  0  0  0  0
  125.7740  137.1210   99.3250 C   0  0  0  0  0  0  0  0  0  0  0  0
  125.9930  134.6810   98.8550 C   0  0  0  0  0  0  0  0  0  0  0  0
  127.5740  139.1010   95.2960 C   0  0  0  0  0  0  0  0  0  0  0  0
  128.7860  138.9530   95.9630 O   0  0  0  0  0  0  0  0  0  0  0  0
  129.6690  139.9950   95.6790 C   0  0  0  0  0  0  0  0  0  0  0  0
  130.8660  139.4290   94.9370 C   0  0  0  0  0  0  0  0  0  0  0  0
  130.7090  138.9550   93.6460 C   0  0  0  0  0  0  0  0  0  0  0  0
  131.7970  138.4360   92.9720 C   0  0  0  0  0  0  0  0  0  0  0  0
  133.0320  138.3960   93.5950 C   0  0  0  0  0  0  0  0  0  0  0  0
  133.1860  138.8710   94.8860 C   0  0  0  0  0  0  0  0  0  0  0  0
  132.0990  139.3920   95.5620 C   0  0  0  0  0  0  0  0  0  0  0  0
  125.6640  136.6950   93.0510 N   0  0  0  0  0  0  0  0  0  0  0  0
  124.8020  136.7550   91.8320 C   0  0  0  0  0  0  0  0  0  0  0  0
  123.8240  135.5910   91.7900 C   0  0  0  0  0  0  0  0  0  0  0  0
  124.5340  134.3110   91.6160 C   0  0  0  0  0  0  0  0  0  0  0  0
  125.8870  134.3260   92.2130 C   0  0  0  0  0  0  0  0  0  0  0  0
  126.0280  135.2860   93.3930 C   0  0  0  0  0  0  0  0  0  0  0  0
  124.2400  132.9470   92.1450 C   0  0  0  0  0  0  0  0  0  0  0  0
  123.5540  132.2530   91.0810 N   0  0  0  0  0  0  0  0  0  0  0  0
  123.9000  132.9300   89.7930 C   0  0  0  0  0  0  0  0  0  0  0  0
  124.4870  134.1690   90.0940 C   0  0  0  0  0  0  0  0  0  0  0  0
  124.9030  135.0170   89.0570 C   0  0  0  0  0  0  0  0  0  0  0  0
  124.7320  134.6250   87.7260 C   0  0  0  0  0  0  0  0  0  0  0  0
  124.1440  133.3820   87.4230 C   0  0  0  0  0  0  0  0  0  0  0  0
  123.7310  132.5430   88.4570 C   0  0  0  0  0  0  0  0  0  0  0  0
  122.2010  131.2450   91.3240 S   0  0  0  0  0  0  0  0  0  0  0  0
  120.9600  132.0180   91.3180 O   0  0  0  0  0  0  0  0  0  0  0  0
  122.1980  130.7100   92.6860 O   0  0  0  0  0  0  0  0  0  0  0  0
  122.1520  129.9230   90.0830 C   0  0  0  0  0  0  0  0  0  0  0  0
  1  2  2  0  0  0  0
  2  3  1  0  0  0  0
  3  4  1  0  0  0  0
  4  5  1  0  0  0  0
  5  6  2  0  0  0  0
  5  7  1  0  0  0  0
  7  8  1  0  0  0  0
  7  9  1  0  0  0  0
  7 10  1  0  0  0  0
  3 11  1  0  0  0  0
 11 12  1  0  0  0  0
 12 13  1  0  0  0  0
 13 14  1  0  0  0  0
 14 15  2  0  0  0  0
 15 16  1  0  0  0  0
 16 17  2  0  0  0  0
 17 18  1  0  0  0  0
 14 19  1  0  0  0  0
 18 19  2  0  0  0  0
  2 20  1  0  0  0  0
 20 21  1  0  0  0  0
 21 22  1  0  0  0  0
 22 23  1  0  0  0  0
 23 24  1  0  0  0  0
 20 25  1  0  0  0  0
 24 25  1  0  0  0  0
 23 26  1  0  0  0  0
 26 27  1  0  0  0  0
 27 28  1  0  0  0  0
 23 29  1  0  0  0  0
 28 29  1  0  0  0  0
 29 30  2  0  0  0  0
 30 31  1  0  0  0  0
 31 32  2  0  0  0  0
 28 33  2  0  0  0  0
 32 33  1  0  0  0  0
 27 34  1  0  0  0  0
 34 35  2  0  0  0  0
 34 36  2  0  0  0  0
 34 37  1  0  0  0  0
M  END
$$$$
