9EMA
  PyMOL3.1          3D                             0

 40 43  0  0  0  0  0  0  0  0999 V2000
  112.5970  149.4000  119.6890 Cl  0  0  0  0  0  0  0  0  0  0  0  0
  101.5230  146.9310  121.3660 C   0  0  0  0  0  0  0  0  0  0  0  0
  101.6330  146.4920  120.0370 O   0  0  0  0  0  0  0  0  0  0  0  0
  100.6690  145.5510  119.6730 C   0  0  0  0  0  0  0  0  0  0  0  0
  101.0840  144.9380  118.3340 C   0  0  0  0  0  0  0  0  0  0  0  0
  102.3380  144.0700  118.0280 C   0  0  0  0  0  0  0  0  0  0  0  0
  103.3740  143.6560  118.9370 N   0  0  0  0  0  0  0  0  0  0  0  0
  104.5730  144.4400  119.0530 C   0  0  0  0  0  0  0  0  0  0  0  0
  105.6750  144.0050  120.0060 C   0  0  0  0  0  0  0  0  0  0  0  0
  105.6000  144.6940  121.3540 C   0  0  0  0  0  0  0  0  0  0  0  0
  106.7180  144.1640  122.2510 C   0  0  0  0  0  0  0  0  0  0  0  0
  104.2570  144.3800  122.0060 C   0  0  0  0  0  0  0  0  0  0  0  0
  105.7140  146.2100  121.1730 C   0  0  0  0  0  0  0  0  0  0  0  0
  106.7380  146.5600  120.2160 N   0  0  0  0  0  0  0  0  0  0  0  0
  108.0300  147.0240  120.6550 C   0  0  0  0  0  0  0  0  0  0  0  0
  109.0980  147.3960  119.6370 C   0  0  0  0  0  0  0  0  0  0  0  0
  108.9730  147.0210  118.3090 C   0  0  0  0  0  0  0  0  0  0  0  0
  107.8600  146.2980  117.8740 O   0  0  0  0  0  0  0  0  0  0  0  0
  108.1030  144.9430  117.6250 C   0  0  0  0  0  0  0  0  0  0  0  0
  108.1750  144.7440  116.1170 C   0  0  0  0  0  0  0  0  0  0  0  0
  109.9470  147.3800  117.4000 C   0  0  0  0  0  0  0  0  0  0  0  0
  111.0530  148.0970  117.8150 C   0  0  0  0  0  0  0  0  0  0  0  0
  111.1790  148.4710  119.1390 C   0  0  0  0  0  0  0  0  0  0  0  0
  110.2040  148.1170  120.0500 C   0  0  0  0  0  0  0  0  0  0  0  0
  108.2640  147.1230  121.8080 O   0  0  0  0  0  0  0  0  0  0  0  0
  104.6950  145.4190  118.4020 O   0  0  0  0  0  0  0  0  0  0  0  0
  102.2430  143.7280  116.5080 C   0  0  0  0  0  0  0  0  0  0  0  0
  101.0380  144.3730  116.0500 N   0  0  0  0  0  0  0  0  0  0  0  0
  100.4010  145.0320  117.0590 N   0  0  0  0  0  0  0  0  0  0  0  0
   99.1510  145.8190  117.0790 C   0  0  0  0  0  0  0  0  0  0  0  0
   97.9300  144.9640  116.7760 C   0  0  0  0  0  0  0  0  0  0  0  0
   98.2530  143.7550  115.9140 C   0  0  0  0  0  0  0  0  0  0  0  0
  100.3670  144.4260  114.7230 C   0  0  0  0  0  0  0  0  0  0  0  0
   99.0370  144.1270  114.6360 C   0  0  0  0  0  0  0  0  0  0  0  0
   98.3890  144.1670  113.3780 C   0  0  0  0  0  0  0  0  0  0  0  0
   99.1200  144.5090  112.2410 C   0  0  0  0  0  0  0  0  0  0  0  0
  100.4840  144.8090  112.3370 C   0  0  0  0  0  0  0  0  0  0  0  0
  101.1240  144.7720  113.5690 C   0  0  0  0  0  0  0  0  0  0  0  0
  103.0000  143.0810  115.8650 O   0  0  0  0  0  0  0  0  0  0  0  0
  112.0050  148.4320  116.9070 F   0  0  0  0  0  0  0  0  0  0  0  0
  2  3  1  0  0  0  0
  3  4  1  0  0  0  0
  4  5  1  0  0  0  0
  5  6  2  0  0  0  0
  6  7  1  0  0  0  0
  7  8  1  0  0  0  0
  8  9  1  0  0  0  0
  9 10  1  0  0  0  0
 10 11  1  0  0  0  0
 10 12  1  0  0  0  0
 10 13  1  0  0  0  0
 13 14  1  0  0  0  0
 14 15  1  0  0  0  0
 15 16  1  0  0  0  0
 16 17  2  0  0  0  0
 17 18  1  0  0  0  0
 18 19  1  0  0  0  0
 19 20  1  0  0  0  0
 17 21  1  0  0  0  0
 21 22  2  0  0  0  0
  1 23  1  0  0  0  0
 22 23  1  0  0  0  0
 16 24  1  0  0  0  0
 23 24  2  0  0  0  0
 15 25  2  0  0  0  0
  8 26  2  0  0  0  0
  6 27  1  0  0  0  0
 27 28  1  0  0  0  0
  5 29  1  0  0  0  0
 28 29  1  0  0  0  0
 29 30  1  0  0  0  0
 30 31  1  0  0  0  0
 31 32  1  0  0  0  0
 28 33  1  0  0  0  0
 32 34  1  0  0  0  0
 33 34  1  0  0  0  0
 34 35  2  0  0  0  0
 35 36  1  0  0  0  0
 36 37  2  0  0  0  0
 33 38  2  0  0  0  0
 37 38  1  0  0  0  0
 27 39  2  0  0  0  0
 22 40  1  0  0  0  0
M  END
$$$$
