8TZ6
  PyMOL3.1          3D                             0

 31 32  0  0  0  0  0  0  0  0999 V2000
  128.7010  122.6780  135.9050 C   0  0  0  0  0  0  0  0  0  0  0  0
  128.5210  123.7510  136.9790 C   0  0  0  0  0  0  0  0  0  0  0  0
  128.2180  123.2280  138.0490 C   0  0  0  0  0  0  0  0  0  0  0  0
  128.6140  124.3770  139.1710 C   0  0  0  0  0  0  0  0  0  0  0  0
  129.7700  124.7750  138.8230 O   0  0  0  0  0  0  0  0  0  0  0  0
  129.8420  124.5530  137.3070 C   0  0  0  0  0  0  0  0  0  0  0  0
  130.9490  123.8770  136.9890 N   0  0  0  0  0  0  0  0  0  0  0  0
  131.6180  123.0940  138.0070 C   0  0  0  0  0  0  0  0  0  0  0  0
  132.8560  122.3280  137.6800 C   0  0  0  0  0  0  0  0  0  0  0  0
  133.4090  122.3740  136.2970 C   0  0  0  0  0  0  0  0  0  0  0  0
  134.3930  121.7700  136.0280 O   0  0  0  0  0  0  0  0  0  0  0  0
  132.7440  123.1590  135.2790 N   0  0  0  0  0  0  0  0  0  0  0  0
  131.5120  123.9230  135.6120 C   0  0  0  0  0  0  0  0  0  0  0  0
  130.9730  124.5590  134.7720 O   0  0  0  0  0  0  0  0  0  0  0  0
  128.6150  123.7300  140.5410 C   0  0  0  0  0  0  0  0  0  0  0  0
  129.7420  122.9040  140.6550 O   0  0  0  0  0  0  0  0  0  0  0  0
  126.7720  122.9310  138.0970 O   0  0  0  0  0  0  0  0  0  0  0  0
  127.4490  124.6860  136.5700 F   0  0  0  0  0  0  0  0  0  0  0  0
  128.8940  123.1550  134.9530 H   0  0  0  0  0  0  0  0  0  0  0  0
  127.7950  122.0880  135.8390 H   0  0  0  0  0  0  0  0  0  0  0  0
  129.5290  122.0320  136.1620 H   0  0  0  0  0  0  0  0  0  0  0  0
  128.8020  122.3340  138.2200 H   0  0  0  0  0  0  0  0  0  0  0  0
  127.9070  125.1970  139.1320 H   0  0  0  0  0  0  0  0  0  0  0  0
  129.8320  125.5060  136.7920 H   0  0  0  0  0  0  0  0  0  0  0  0
  131.2190  123.0580  139.0090 H   0  0  0  0  0  0  0  0  0  0  0  0
  133.3460  121.7430  138.4480 H   0  0  0  0  0  0  0  0  0  0  0  0
  133.1200  123.1870  134.3500 H   0  0  0  0  0  0  0  0  0  0  0  0
  128.6390  124.4870  141.3120 H   0  0  0  0  0  0  0  0  0  0  0  0
  127.7230  123.1300  140.6540 H   0  0  0  0  0  0  0  0  0  0  0  0
  130.4560  123.4070  141.0050 H   0  0  0  0  0  0  0  0  0  0  0  0
  126.3190  123.4890  137.4890 H   0  0  0  0  0  0  0  0  0  0  0  0
  1  2  1  0  0  0  0
  2  3  1  0  0  0  0
  3  4  1  0  0  0  0
  4  5  1  0  0  0  0
  2  6  1  0  0  0  0
  5  6  1  0  0  0  0
  6  7  1  0  0  0  0
  7  8  1  0  0  0  0
  8  9  2  0  0  0  0
  9 10  1  0  0  0  0
 10 11  2  0  0  0  0
 10 12  1  0  0  0  0
  7 13  1  0  0  0  0
 12 13  1  0  0  0  0
 13 14  2  0  0  0  0
  4 15  1  0  0  0  0
 15 16  1  0  0  0  0
  3 17  1  0  0  0  0
  2 18  1  0  0  0  0
  1 19  1  0  0  0  0
  1 20  1  0  0  0  0
  1 21  1  0  0  0  0
  3 22  1  0  0  0  0
  4 23  1  0  0  0  0
  6 24  1  0  0  0  0
  8 25  1  0  0  0  0
  9 26  1  0  0  0  0
 12 27  1  0  0  0  0
 15 28  1  0  0  0  0
 15 29  1  0  0  0  0
 16 30  1  0  0  0  0
 17 31  1  0  0  0  0
M  END
$$$$
