8TZ6
  PyMOL3.1          3D                             0

 31 32  0  0  0  0  0  0  0  0999 V2000
  129.4400  154.2970  135.9440 C   0  0  0  0  0  0  0  0  0  0  0  0
  130.4540  153.9200  137.0240 C   0  0  0  0  0  0  0  0  0  0  0  0
  130.1510  154.4530  138.0890 C   0  0  0  0  0  0  0  0  0  0  0  0
  130.9420  153.5400  139.2200 C   0  0  0  0  0  0  0  0  0  0  0  0
  130.7050  152.3390  138.8800 O   0  0  0  0  0  0  0  0  0  0  0  0
  130.4810  152.3770  137.3630 C   0  0  0  0  0  0  0  0  0  0  0  0
  129.3400  151.7590  137.0470 N   0  0  0  0  0  0  0  0  0  0  0  0
  128.3240  151.5830  138.0630 C   0  0  0  0  0  0  0  0  0  0  0  0
  127.0400  150.8960  137.7370 C   0  0  0  0  0  0  0  0  0  0  0  0
  126.8060  150.3860  136.3570 C   0  0  0  0  0  0  0  0  0  0  0  0
  125.7890  149.8380  136.0890 O   0  0  0  0  0  0  0  0  0  0  0  0
  127.8210  150.5570  135.3400 N   0  0  0  0  0  0  0  0  0  0  0  0
  129.1010  151.2400  135.6720 C   0  0  0  0  0  0  0  0  0  0  0  0
  129.9240  151.3790  134.8340 O   0  0  0  0  0  0  0  0  0  0  0  0
  130.3790  153.8750  140.5860 C   0  0  0  0  0  0  0  0  0  0  0  0
  129.0980  153.3180  140.7010 O   0  0  0  0  0  0  0  0  0  0  0  0
  130.6230  155.8520  138.1280 O   0  0  0  0  0  0  0  0  0  0  0  0
  131.8030  154.3730  136.6150 F   0  0  0  0  0  0  0  0  0  0  0  0
  129.7570  153.8830  134.9960 H   0  0  0  0  0  0  0  0  0  0  0  0
  129.3880  155.3760  135.8700 H   0  0  0  0  0  0  0  0  0  0  0  0
  128.4630  153.9100  136.2010 H   0  0  0  0  0  0  0  0  0  0  0  0
  129.0850  154.4000  138.2580 H   0  0  0  0  0  0  0  0  0  0  0  0
  132.0070  153.7390  139.1830 H   0  0  0  0  0  0  0  0  0  0  0  0
  131.3100  151.9030  136.8520 H   0  0  0  0  0  0  0  0  0  0  0  0
  128.4920  151.9520  139.0630 H   0  0  0  0  0  0  0  0  0  0  0  0
  126.2860  150.7720  138.5040 H   0  0  0  0  0  0  0  0  0  0  0  0
  127.6580  150.2120  134.4140 H   0  0  0  0  0  0  0  0  0  0  0  0
  131.0180  153.4780  141.3620 H   0  0  0  0  0  0  0  0  0  0  0  0
  130.3100  154.9490  140.6920 H   0  0  0  0  0  0  0  0  0  0  0  0
  129.1730  152.4510  141.0570 H   0  0  0  0  0  0  0  0  0  0  0  0
  131.3330  155.9580  137.5190 H   0  0  0  0  0  0  0  0  0  0  0  0
  1  2  1  0  0  0  0
  2  3  1  0  0  0  0
  3  4  1  0  0  0  0
  4  5  1  0  0  0  0
  2  6  1  0  0  0  0
  5  6  1  0  0  0  0
  6  7  1  0  0  0  0
  7  8  1  0  0  0  0
  8  9  2  0  0  0  0
  9 10  1  0  0  0  0
 10 11  2  0  0  0  0
 10 12  1  0  0  0  0
  7 13  1  0  0  0  0
 12 13  1  0  0  0  0
 13 14  2  0  0  0  0
  4 15  1  0  0  0  0
 15 16  1  0  0  0  0
  3 17  1  0  0  0  0
  2 18  1  0  0  0  0
  1 19  1  0  0  0  0
  1 20  1  0  0  0  0
  1 21  1  0  0  0  0
  3 22  1  0  0  0  0
  4 23  1  0  0  0  0
  6 24  1  0  0  0  0
  8 25  1  0  0  0  0
  9 26  1  0  0  0  0
 12 27  1  0  0  0  0
 15 28  1  0  0  0  0
 15 29  1  0  0  0  0
 16 30  1  0  0  0  0
 17 31  1  0  0  0  0
M  END
$$$$
