8R4O
  PyMOL3.1          3D                             0

 33 36  0  0  0  0  0  0  0  0999 V2000
    3.7450   67.4150  -68.5370 C   0  0  0  0  0  0  0  0  0  0  0  0
    3.1610   67.7260  -67.2780 O   0  0  0  0  0  0  0  0  0  0  0  0
    4.0190   67.1810  -66.3350 C   0  0  0  0  0  0  0  0  0  0  0  0
    5.2540   67.7810  -66.0950 C   0  0  0  0  0  0  0  0  0  0  0  0
    6.1320   67.2700  -65.1430 C   0  0  0  0  0  0  0  0  0  0  0  0
    5.7680   66.1330  -64.4170 C   0  0  0  0  0  0  0  0  0  0  0  0
    4.5160   65.5370  -64.6220 C   0  0  0  0  0  0  0  0  0  0  0  0
    4.0780   64.3910  -63.9650 O   0  0  0  0  0  0  0  0  0  0  0  0
    4.4280   64.3850  -62.5850 C   0  0  0  0  0  0  0  0  0  0  0  0
    3.6580   66.0600  -65.5860 C   0  0  0  0  0  0  0  0  0  0  0  0
    2.3610   65.4230  -65.7950 C   0  0  0  0  0  0  0  0  0  0  0  0
    2.2430   64.2160  -65.9750 O   0  0  0  0  0  0  0  0  0  0  0  0
    1.3800   66.3610  -65.7000 N   0  0  0  0  0  0  0  0  0  0  0  0
    0.1440   66.2810  -66.3650 C   0  0  0  0  0  0  0  0  0  0  0  0
   -0.5610   67.5650  -66.6970 C   0  0  0  0  0  0  0  0  0  0  0  0
   -1.1350   66.6390  -65.6730 C   0  0  0  0  0  0  0  0  0  0  0  0
    7.3900   67.9310  -64.9100 C   0  0  0  0  0  0  0  0  0  0  0  0
    8.5980   67.4170  -64.4070 C   0  0  0  0  0  0  0  0  0  0  0  0
    9.5720   68.3260  -64.3570 N   0  0  0  0  0  0  0  0  0  0  0  0
    8.9990   69.4690  -64.8280 N   0  0  0  0  0  0  0  0  0  0  0  0
    9.6040   70.7240  -65.0170 C   0  0  0  0  0  0  0  0  0  0  0  0
    8.9020   71.7760  -65.5020 C   0  0  0  0  0  0  0  0  0  0  0  0
    7.4940   71.5720  -65.8450 C   0  0  0  0  0  0  0  0  0  0  0  0
    6.9160   70.3690  -65.6810 C   0  0  0  0  0  0  0  0  0  0  0  0
    7.6620   69.2570  -65.1730 C   0  0  0  0  0  0  0  0  0  0  0  0
    9.4540   73.1480  -65.7480 C   0  0  0  0  0  0  0  0  0  0  0  0
    9.3800   73.4130  -67.2280 C   0  0  0  0  0  0  0  0  0  0  0  0
   10.8850   73.2940  -65.3020 C   0  0  0  0  0  0  0  0  0  0  0  0
    8.6830   74.2020  -65.1000 C   0  0  0  0  0  0  0  0  0  0  0  0
    8.0920   75.0720  -64.6100 N   0  0  0  0  0  0  0  0  0  0  0  0
    3.6020   65.2210  -61.9090 F   0  0  0  0  0  0  0  0  0  0  0  0
    4.1030   63.1390  -62.1550 F   0  0  0  0  0  0  0  0  0  0  0  0
   -1.0150   67.0110  -64.3410 F   0  0  0  0  0  0  0  0  0  0  0  0
  1  2  1  0  0  0  0
  2  3  1  0  0  0  0
  3  4  2  0  0  0  0
  4  5  1  0  0  0  0
  5  6  2  0  0  0  0
  6  7  1  0  0  0  0
  7  8  1  0  0  0  0
  8  9  1  0  0  0  0
  3 10  1  0  0  0  0
  7 10  2  0  0  0  0
 10 11  1  0  0  0  0
 11 12  2  0  0  0  0
 11 13  1  0  0  0  0
 13 14  1  0  0  0  0
 14 15  1  0  0  0  0
 14 16  1  0  0  0  0
 15 16  1  0  0  0  0
  5 17  1  0  0  0  0
 17 18  1  0  0  0  0
 18 19  2  0  0  0  0
 19 20  1  0  0  0  0
 20 21  1  0  0  0  0
 21 22  2  0  0  0  0
 22 23  1  0  0  0  0
 23 24  2  0  0  0  0
 17 25  2  0  0  0  0
 20 25  1  0  0  0  0
 24 25  1  0  0  0  0
 22 26  1  0  0  0  0
 26 27  1  0  0  0  0
 26 28  1  0  0  0  0
 26 29  1  0  0  0  0
 29 30  3  0  0  0  0
  9 31  1  0  0  0  0
  9 32  1  0  0  0  0
 16 33  1  0  0  0  0
M  END
$$$$
