8R4O
  PyMOL3.1          3D                             0

 33 36  0  0  0  0  0  0  0  0999 V2000
    8.8110   23.4460  -14.6900 C   0  0  0  0  0  0  0  0  0  0  0  0
    9.1510   22.4370  -13.7430 O   0  0  0  0  0  0  0  0  0  0  0  0
    8.0440   22.0750  -12.9810 C   0  0  0  0  0  0  0  0  0  0  0  0
    6.7150   22.2800  -13.3640 C   0  0  0  0  0  0  0  0  0  0  0  0
    5.6530   21.8670  -12.5560 C   0  0  0  0  0  0  0  0  0  0  0  0
    5.9100   21.2450  -11.3300 C   0  0  0  0  0  0  0  0  0  0  0  0
    7.2390   21.0340  -10.9290 C   0  0  0  0  0  0  0  0  0  0  0  0
    7.6580   20.4320   -9.7400 O   0  0  0  0  0  0  0  0  0  0  0  0
    6.6360   20.3630   -8.7740 C   0  0  0  0  0  0  0  0  0  0  0  0
    8.2810   21.4350  -11.7670 C   0  0  0  0  0  0  0  0  0  0  0  0
    9.6540   21.2130  -11.3130 C   0  0  0  0  0  0  0  0  0  0  0  0
   10.0810   21.7620  -10.3010 O   0  0  0  0  0  0  0  0  0  0  0  0
   10.3370   20.3650  -12.1330 N   0  0  0  0  0  0  0  0  0  0  0  0
   11.7400   20.2350  -11.9830 C   0  0  0  0  0  0  0  0  0  0  0  0
   12.6000   19.8510  -13.1560 C   0  0  0  0  0  0  0  0  0  0  0  0
   12.4690   18.9260  -11.9880 C   0  0  0  0  0  0  0  0  0  0  0  0
    4.3020   22.1290  -12.9920 C   0  0  0  0  0  0  0  0  0  0  0  0
    3.2000   22.6470  -12.2830 C   0  0  0  0  0  0  0  0  0  0  0  0
    2.1080   22.8020  -13.0390 N   0  0  0  0  0  0  0  0  0  0  0  0
    2.4840   22.3770  -14.2750 N   0  0  0  0  0  0  0  0  0  0  0  0
    1.7030   22.3500  -15.4380 C   0  0  0  0  0  0  0  0  0  0  0  0
    2.2260   21.9040  -16.6020 C   0  0  0  0  0  0  0  0  0  0  0  0
    3.6230   21.4630  -16.6200 C   0  0  0  0  0  0  0  0  0  0  0  0
    4.3840   21.4890  -15.5070 C   0  0  0  0  0  0  0  0  0  0  0  0
    3.8250   21.9640  -14.2770 C   0  0  0  0  0  0  0  0  0  0  0  0
    1.5100   21.8370  -17.9090 C   0  0  0  0  0  0  0  0  0  0  0  0
    0.0150   21.9800  -17.8040 C   0  0  0  0  0  0  0  0  0  0  0  0
    2.0660   22.8960  -18.8230 C   0  0  0  0  0  0  0  0  0  0  0  0
    1.8030   20.5760  -18.5490 C   0  0  0  0  0  0  0  0  0  0  0  0
    2.0480   19.5780  -19.0870 N   0  0  0  0  0  0  0  0  0  0  0  0
    6.1090   19.1250   -8.8860 F   0  0  0  0  0  0  0  0  0  0  0  0
    7.2720   20.3070   -7.5850 F   0  0  0  0  0  0  0  0  0  0  0  0
   11.6820   17.7990  -12.1540 F   0  0  0  0  0  0  0  0  0  0  0  0
  1  2  1  0  0  0  0
  2  3  1  0  0  0  0
  3  4  2  0  0  0  0
  4  5  1  0  0  0  0
  5  6  2  0  0  0  0
  6  7  1  0  0  0  0
  7  8  1  0  0  0  0
  8  9  1  0  0  0  0
  3 10  1  0  0  0  0
  7 10  2  0  0  0  0
 10 11  1  0  0  0  0
 11 12  2  0  0  0  0
 11 13  1  0  0  0  0
 13 14  1  0  0  0  0
 14 15  1  0  0  0  0
 14 16  1  0  0  0  0
 15 16  1  0  0  0  0
  5 17  1  0  0  0  0
 17 18  1  0  0  0  0
 18 19  2  0  0  0  0
 19 20  1  0  0  0  0
 20 21  1  0  0  0  0
 21 22  2  0  0  0  0
 22 23  1  0  0  0  0
 23 24  2  0  0  0  0
 17 25  2  0  0  0  0
 20 25  1  0  0  0  0
 24 25  1  0  0  0  0
 22 26  1  0  0  0  0
 26 27  1  0  0  0  0
 26 28  1  0  0  0  0
 26 29  1  0  0  0  0
 29 30  3  0  0  0  0
  9 31  1  0  0  0  0
  9 32  1  0  0  0  0
 16 33  1  0  0  0  0
M  END
$$$$
