6WZW
  PyMOL3.1          3D                             0

 39 43  0  0  0  0  0  0  0  0999 V2000
    5.6436   -3.2666    9.2812 C   0  0  0  0  0  0  0  0  0  0  0  0
    5.8549   -2.0884    8.5649 C   0  0  0  0  0  0  0  0  0  0  0  0
    6.5240   -0.9989    9.1036 C   0  0  0  0  0  0  0  0  0  0  0  0
    6.9709   -1.1482   10.4320 C   0  0  0  0  0  0  0  0  0  0  0  0
    6.7700   -2.3241   11.1849 C   0  0  0  0  0  0  0  0  0  0  0  0
    6.1024   -3.3857   10.5886 C   0  0  0  0  0  0  0  0  0  0  0  0
    7.1022    4.1522    8.8406 C   0  0  0  0  0  0  0  0  0  0  0  0
    6.9613    3.4025   10.0107 C   0  0  0  0  0  0  0  0  0  0  0  0
    7.2475    5.5523    8.8133 C   0  0  0  0  0  0  0  0  0  0  0  0
    6.9381    2.1455    7.6039 C   0  0  0  0  0  0  0  0  0  0  0  0
    6.8063    1.3998    8.7211 C   0  0  0  0  0  0  0  0  0  0  0  0
    7.0827    3.4765    7.6369 C   0  0  0  0  0  0  0  0  0  0  0  0
    6.8113    2.0126    9.9243 C   0  0  0  0  0  0  0  0  0  0  0  0
    7.0180    1.8521    5.1228 C   0  0  0  0  0  0  0  0  0  0  0  0
    8.0908    1.1015    4.3606 C   0  0  0  0  0  0  0  0  0  0  0  0
    8.0571    1.3422    2.8428 C   0  0  0  0  0  0  0  0  0  0  0  0
    5.7744    1.9869    2.9151 C   0  0  0  0  0  0  0  0  0  0  0  0
    5.6667    1.7615    4.4489 C   0  0  0  0  0  0  0  0  0  0  0  0
    9.1813    7.1301   11.7259 C   0  0  0  0  0  0  0  0  0  0  0  0
    7.9870    7.9303   12.1765 C   0  0  0  0  0  0  0  0  0  0  0  0
    9.8253    8.5007   11.6065 C   0  0  0  0  0  0  0  0  0  0  0  0
    6.6732    1.6104   -0.4365 C   0  0  0  0  0  0  0  0  0  0  0  0
    6.9022    1.3385    6.5475 N   0  0  0  0  0  0  0  0  0  0  0  0
    6.7010    0.9383    2.4587 N   0  0  0  0  0  0  0  0  0  0  0  0
    7.5030   -0.7683    0.7959 O   0  0  0  0  0  0  0  0  0  0  0  0
    6.5085    0.3546    1.0250 S   0  0  0  0  0  0  0  0  0  0  0  0
    7.2617   -2.4290   12.5093 C   0  0  0  0  0  0  0  0  0  0  0  0
    6.6871    0.1137    8.3302 C   0  0  0  0  0  0  0  0  0  0  0  0
    6.7420    0.0823    6.9727 C   0  0  0  0  0  0  0  0  0  0  0  0
    8.9458    6.5009   10.3519 C   0  0  0  0  0  0  0  0  0  0  0  0
    8.1620   -1.5279   12.9078 N   0  0  0  0  0  0  0  0  0  0  0  0
    7.6758    6.1507   10.0870 N   0  0  0  0  0  0  0  0  0  0  0  0
    9.0081    8.7978   12.8073 N   0  0  0  0  0  0  0  0  0  0  0  0
    5.1195   -0.2536    0.9258 O   0  0  0  0  0  0  0  0  0  0  0  0
    9.8799    6.3383    9.5719 O   0  0  0  0  0  0  0  0  0  0  0  0
    6.7669   -3.7490   13.5646 S   0  0  0  0  0  0  0  0  0  0  0  0
    5.7055    2.4772   -0.3189 F   0  0  0  0  0  0  0  0  0  0  0  0
    7.8140    2.1254   -0.4148 F   0  0  0  0  0  0  0  0  0  0  0  0
    6.5574    0.9273   -1.5180 F   0  0  0  0  0  0  0  0  0  0  0  0
  1  2  1  0  0  0  0
  2  3  2  0  0  0  0
  3  4  1  0  0  0  0
  4  5  2  0  0  0  0
  1  6  2  0  0  0  0
  5  6  1  0  0  0  0
  7  8  2  0  0  0  0
  7  9  1  0  0  0  0
 10 11  1  0  0  0  0
  7 12  1  0  0  0  0
 10 12  2  0  0  0  0
  8 13  1  0  0  0  0
 11 13  2  0  0  0  0
 14 15  1  0  0  0  0
 15 16  1  0  0  0  0
 14 18  1  0  0  0  0
 17 18  1  0  0  0  0
 19 20  1  0  0  0  0
 19 21  1  0  0  0  0
 10 23  1  0  0  0  0
 14 23  1  0  0  0  0
 16 24  1  0  0  0  0
 17 24  1  0  0  0  0
 22 26  1  0  0  0  0
 24 26  1  0  0  0  0
 25 26  2  0  0  0  0
  5 27  1  0  0  0  0
  3 28  1  0  0  0  0
 11 28  1  0  0  0  0
 23 29  1  0  0  0  0
 28 29  2  0  0  0  0
 19 30  1  0  0  0  0
 27 31  1  0  0  0  0
  9 32  1  0  0  0  0
 30 32  1  0  0  0  0
 20 33  1  0  0  0  0
 21 33  1  0  0  0  0
 26 34  2  0  0  0  0
 30 35  2  0  0  0  0
 27 36  2  0  0  0  0
 22 37  1  0  0  0  0
 22 38  1  0  0  0  0
 22 39  1  0  0  0  0
M  END
$$$$
