8BLP
  PyMOL3.1          3D                             0

 30 34  0  0  0  0  0  0  0  0999 V2000
  123.8900  140.3550  110.7260 C   0  0  0  0  0  0  0  0  0  0  0  0
  124.6280  139.9820  109.6160 C   0  0  0  0  0  0  0  0  0  0  0  0
  125.9840  140.2420  109.5970 C   0  0  0  0  0  0  0  0  0  0  0  0
  126.6160  140.8610  110.6610 C   0  0  0  0  0  0  0  0  0  0  0  0
  125.8530  141.2140  111.7640 C   0  0  0  0  0  0  0  0  0  0  0  0
  124.4940  140.9680  111.8090 C   0  0  0  0  0  0  0  0  0  0  0  0
  128.1060  141.1270  110.6240 C   0  0  0  0  0  0  0  0  0  0  0  0
  128.9020  139.8500  110.6730 C   0  0  0  0  0  0  0  0  0  0  0  0
  121.4020  141.3650  109.9660 C   0  0  0  0  0  0  0  0  0  0  0  0
  120.9050  142.4860  110.5180 C   0  0  0  0  0  0  0  0  0  0  0  0
  120.2920  144.0780  112.0480 C   0  0  0  0  0  0  0  0  0  0  0  0
  119.7790  144.8560  110.9850 C   0  0  0  0  0  0  0  0  0  0  0  0
  119.8390  144.4290  109.6800 C   0  0  0  0  0  0  0  0  0  0  0  0
  118.8820  146.4940  109.4180 C   0  0  0  0  0  0  0  0  0  0  0  0
  119.2690  145.3630  108.7760 C   0  0  0  0  0  0  0  0  0  0  0  0
  121.1290  144.0920  114.3290 C   0  0  0  0  0  0  0  0  0  0  0  0
  120.3890  143.3040  115.3600 C   0  0  0  0  0  0  0  0  0  0  0  0
  120.4250  143.2020  109.4740 N   0  0  0  0  0  0  0  0  0  0  0  0
  120.6160  142.5400  108.3010 N   0  0  0  0  0  0  0  0  0  0  0  0
  121.2180  141.4080  108.6180 N   0  0  0  0  0  0  0  0  0  0  0  0
  120.8730  142.8550  111.8170 N   0  0  0  0  0  0  0  0  0  0  0  0
  120.2200  144.5200  113.2960 N   0  0  0  0  0  0  0  0  0  0  0  0
  121.9350  138.8620  109.9370 O   0  0  0  0  0  0  0  0  0  0  0  0
  121.7270  140.0160  112.1270 O   0  0  0  0  0  0  0  0  0  0  0  0
  122.1610  140.0170  110.7580 S   0  0  0  0  0  0  0  0  0  0  0  0
  119.0300  146.3950  111.1160 S   0  0  0  0  0  0  0  0  0  0  0  0
  119.9280  141.9910  115.2480 C   0  0  0  0  0  0  0  0  0  0  0  0
  119.2980  141.5760  116.4520 C   0  0  0  0  0  0  0  0  0  0  0  0
  119.2410  142.5410  117.3910 C   0  0  0  0  0  0  0  0  0  0  0  0
  120.0010  143.9720  116.8860 S   0  0  0  0  0  0  0  0  0  0  0  0
  1  2  2  0  0  0  0
  2  3  1  0  0  0  0
  3  4  2  0  0  0  0
  4  5  1  0  0  0  0
  1  6  1  0  0  0  0
  5  6  2  0  0  0  0
  4  7  1  0  0  0  0
  7  8  1  0  0  0  0
  9 10  2  0  0  0  0
 11 12  1  0  0  0  0
 12 13  2  0  0  0  0
 13 15  1  0  0  0  0
 14 15  2  0  0  0  0
 16 17  1  0  0  0  0
 10 18  1  0  0  0  0
 13 18  1  0  0  0  0
 18 19  1  0  0  0  0
  9 20  1  0  0  0  0
 19 20  2  0  0  0  0
 10 21  1  0  0  0  0
 11 21  2  0  0  0  0
 11 22  1  0  0  0  0
 16 22  1  0  0  0  0
  1 25  1  0  0  0  0
  9 25  1  0  0  0  0
 23 25  2  0  0  0  0
 24 25  2  0  0  0  0
 12 26  1  0  0  0  0
 14 26  1  0  0  0  0
 17 27  2  0  0  0  0
 27 28  1  0  0  0  0
 28 29  2  0  0  0  0
 17 30  1  0  0  0  0
 29 30  1  0  0  0  0
M  END
$$$$
