8BLP
  PyMOL3.1          3D                             0

 30 34  0  0  0  0  0  0  0  0999 V2000
  139.0110  120.9620  132.8620 C   0  0  0  0  0  0  0  0  0  0  0  0
  139.3250  121.4920  134.1010 C   0  0  0  0  0  0  0  0  0  0  0  0
  139.9680  122.7130  134.1630 C   0  0  0  0  0  0  0  0  0  0  0  0
  140.2980  123.4170  133.0170 C   0  0  0  0  0  0  0  0  0  0  0  0
  139.9680  122.8630  131.7900 C   0  0  0  0  0  0  0  0  0  0  0  0
  139.3260  121.6430  131.7000 C   0  0  0  0  0  0  0  0  0  0  0  0
  141.0020  124.7570  133.1050 C   0  0  0  0  0  0  0  0  0  0  0  0
  140.9220  125.5830  131.8490 C   0  0  0  0  0  0  0  0  0  0  0  0
  138.9650  118.3890  133.9390 C   0  0  0  0  0  0  0  0  0  0  0  0
  140.0180  117.5740  133.7670 C   0  0  0  0  0  0  0  0  0  0  0  0
  141.7610  116.4400  132.8170 C   0  0  0  0  0  0  0  0  0  0  0  0
  142.0080  115.8340  134.0680 C   0  0  0  0  0  0  0  0  0  0  0  0
  141.2430  116.1140  135.1690 C   0  0  0  0  0  0  0  0  0  0  0  0
  142.7200  114.6000  136.0440 C   0  0  0  0  0  0  0  0  0  0  0  0
  141.6590  115.3990  136.3190 C   0  0  0  0  0  0  0  0  0  0  0  0
  142.4540  116.8820  130.5380 C   0  0  0  0  0  0  0  0  0  0  0  0
  141.6770  116.1090  129.5240 C   0  0  0  0  0  0  0  0  0  0  0  0
  140.2240  117.0160  134.9800 N   0  0  0  0  0  0  0  0  0  0  0  0
  139.3210  117.4670  135.8840 N   0  0  0  0  0  0  0  0  0  0  0  0
  138.5470  118.3130  135.2320 N   0  0  0  0  0  0  0  0  0  0  0  0
  140.7400  117.3370  132.6530 N   0  0  0  0  0  0  0  0  0  0  0  0
  142.5190  116.1520  131.7740 N   0  0  0  0  0  0  0  0  0  0  0  0
  136.8330  119.6040  133.2130 O   0  0  0  0  0  0  0  0  0  0  0  0
  138.4260  118.8440  131.4730 O   0  0  0  0  0  0  0  0  0  0  0  0
  138.1820  119.4080  132.7690 S   0  0  0  0  0  0  0  0  0  0  0  0
  143.2440  114.7000  134.4230 S   0  0  0  0  0  0  0  0  0  0  0  0
  142.1580  115.5430  128.3450 C   0  0  0  0  0  0  0  0  0  0  0  0
  141.0760  115.1850  127.5030 C   0  0  0  0  0  0  0  0  0  0  0  0
  139.8760  115.2740  128.1060 C   0  0  0  0  0  0  0  0  0  0  0  0
  140.0060  115.8240  129.7060 S   0  0  0  0  0  0  0  0  0  0  0  0
  1  2  2  0  0  0  0
  2  3  1  0  0  0  0
  3  4  2  0  0  0  0
  4  5  1  0  0  0  0
  1  6  1  0  0  0  0
  5  6  2  0  0  0  0
  4  7  1  0  0  0  0
  7  8  1  0  0  0  0
  9 10  2  0  0  0  0
 11 12  1  0  0  0  0
 12 13  2  0  0  0  0
 13 15  1  0  0  0  0
 14 15  2  0  0  0  0
 16 17  1  0  0  0  0
 10 18  1  0  0  0  0
 13 18  1  0  0  0  0
 18 19  1  0  0  0  0
  9 20  1  0  0  0  0
 19 20  2  0  0  0  0
 10 21  1  0  0  0  0
 11 21  2  0  0  0  0
 11 22  1  0  0  0  0
 16 22  1  0  0  0  0
  1 25  1  0  0  0  0
  9 25  1  0  0  0  0
 23 25  2  0  0  0  0
 24 25  2  0  0  0  0
 12 26  1  0  0  0  0
 14 26  1  0  0  0  0
 17 27  2  0  0  0  0
 27 28  1  0  0  0  0
 28 29  2  0  0  0  0
 17 30  1  0  0  0  0
 29 30  1  0  0  0  0
M  END
$$$$
