8BLP
  PyMOL3.1          3D                             0

 30 34  0  0  0  0  0  0  0  0999 V2000
  113.3060  110.1350  132.8160 C   0  0  0  0  0  0  0  0  0  0  0  0
  113.6090  109.5980  134.0550 C   0  0  0  0  0  0  0  0  0  0  0  0
  114.3430  108.4290  134.1160 C   0  0  0  0  0  0  0  0  0  0  0  0
  114.7840  107.7900  132.9700 C   0  0  0  0  0  0  0  0  0  0  0  0
  114.4690  108.3530  131.7430 C   0  0  0  0  0  0  0  0  0  0  0  0
  113.7360  109.5210  131.6540 C   0  0  0  0  0  0  0  0  0  0  0  0
  115.5900  106.5090  133.0570 C   0  0  0  0  0  0  0  0  0  0  0  0
  116.3430  106.1630  131.8000 C   0  0  0  0  0  0  0  0  0  0  0  0
  111.1050  111.4660  133.8960 C   0  0  0  0  0  0  0  0  0  0  0  0
  109.8720  110.9640  133.7260 C   0  0  0  0  0  0  0  0  0  0  0  0
  108.0150  110.0260  132.7790 C   0  0  0  0  0  0  0  0  0  0  0  0
  107.3690  110.1160  134.0310 C   0  0  0  0  0  0  0  0  0  0  0  0
  107.9960  110.6380  135.1310 C   0  0  0  0  0  0  0  0  0  0  0  0
  105.9470  110.1200  136.0090 C   0  0  0  0  0  0  0  0  0  0  0  0
  107.1710  110.6370  136.2820 C   0  0  0  0  0  0  0  0  0  0  0  0
  108.0460  109.2040  130.5000 C   0  0  0  0  0  0  0  0  0  0  0  0
  107.7660  110.2640  129.4860 C   0  0  0  0  0  0  0  0  0  0  0  0
  109.2870  111.0660  134.9400 N   0  0  0  0  0  0  0  0  0  0  0  0
  110.1320  111.6210  135.8430 N   0  0  0  0  0  0  0  0  0  0  0  0
  111.2510  111.8660  135.1890 N   0  0  0  0  0  0  0  0  0  0  0  0
  109.3030  110.4590  132.6130 N   0  0  0  0  0  0  0  0  0  0  0  0
  107.3840  109.5140  131.7370 N   0  0  0  0  0  0  0  0  0  0  0  0
  113.2250  112.7010  133.1670 O   0  0  0  0  0  0  0  0  0  0  0  0
  111.7660  111.7040  131.4290 O   0  0  0  0  0  0  0  0  0  0  0  0
  112.3780  111.6320  132.7240 S   0  0  0  0  0  0  0  0  0  0  0  0
  105.7680  109.6160  134.3880 S   0  0  0  0  0  0  0  0  0  0  0  0
  107.0330  110.1310  128.3080 C   0  0  0  0  0  0  0  0  0  0  0  0
  107.2660  111.2470  127.4660 C   0  0  0  0  0  0  0  0  0  0  0  0
  107.9460  112.2400  128.0680 C   0  0  0  0  0  0  0  0  0  0  0  0
  108.3580  111.8520  129.6670 S   0  0  0  0  0  0  0  0  0  0  0  0
  1  2  2  0  0  0  0
  2  3  1  0  0  0  0
  3  4  2  0  0  0  0
  4  5  1  0  0  0  0
  1  6  1  0  0  0  0
  5  6  2  0  0  0  0
  4  7  1  0  0  0  0
  7  8  1  0  0  0  0
  9 10  2  0  0  0  0
 11 12  1  0  0  0  0
 12 13  2  0  0  0  0
 13 15  1  0  0  0  0
 14 15  2  0  0  0  0
 16 17  1  0  0  0  0
 10 18  1  0  0  0  0
 13 18  1  0  0  0  0
 18 19  1  0  0  0  0
  9 20  1  0  0  0  0
 19 20  2  0  0  0  0
 10 21  1  0  0  0  0
 11 21  2  0  0  0  0
 11 22  1  0  0  0  0
 16 22  1  0  0  0  0
  1 25  1  0  0  0  0
  9 25  1  0  0  0  0
 23 25  2  0  0  0  0
 24 25  2  0  0  0  0
 12 26  1  0  0  0  0
 14 26  1  0  0  0  0
 17 27  2  0  0  0  0
 27 28  1  0  0  0  0
 28 29  2  0  0  0  0
 17 30  1  0  0  0  0
 29 30  1  0  0  0  0
M  END
$$$$
