7U4O
  PyMOL3.1          3D                             0

144156  0  0  0  0  0  0  0  0999 V2000
  -30.3746   23.0754  -32.1578 C   0  0  0  0  0  0  0  0  0  0  0  0
  -30.8977   24.2699  -32.9547 C   0  0  0  0  0  0  0  0  0  0  0  0
  -32.0467   25.0887  -32.2993 C   0  0  0  0  0  0  0  0  0  0  0  0
  -32.8463   26.0940  -33.1223 C   0  0  0  0  0  0  0  0  0  0  0  0
  -32.4503   26.4500  -34.7858 S   0  0  0  0  0  0  0  0  0  0  0  0
  -33.7156   27.6037  -35.0216 C   0  0  0  0  0  0  0  0  0  0  0  0
  -34.4447   27.7500  -33.8950 C   0  0  0  0  0  0  0  0  0  0  0  0
  -35.6139   28.6284  -33.6782 C   0  0  0  0  0  0  0  0  0  0  0  0
  -35.9572   28.9854  -32.2067 C   0  0  0  0  0  0  0  0  0  0  0  0
  -35.6124   27.9569  -31.1863 C   0  0  0  0  0  0  0  0  0  0  0  0
  -36.1636   27.8661  -29.8959 C   0  0  0  0  0  0  0  0  0  0  0  0
  -35.8508   26.9284  -28.9642 N   0  0  0  0  0  0  0  0  0  0  0  0
  -34.9281   26.0072  -29.3216 C   0  0  0  0  0  0  0  0  0  0  0  0
  -34.4544   24.7202  -28.1186 S   0  0  0  0  0  0  0  0  0  0  0  0
  -32.9346   23.6580  -28.6134 C   0  0  0  0  0  0  0  0  0  0  0  0
  -31.6405   23.9803  -27.8653 C   0  0  0  0  0  0  0  0  0  0  0  0
  -31.3598   25.1326  -27.6368 O   0  0  0  0  0  0  0  0  0  0  0  0
  -30.6741   22.8909  -27.3471 C   0  0  0  0  0  0  0  0  0  0  0  0
  -31.1210   21.4863  -27.8061 C   0  0  0  0  0  0  0  0  0  0  0  0
  -30.7012   22.9429  -25.8304 C   0  0  0  0  0  0  0  0  0  0  0  0
  -29.2726   23.1701  -27.8653 C   0  0  0  0  0  0  0  0  0  0  0  0
  -34.3188   25.9851  -30.5467 N   0  0  0  0  0  0  0  0  0  0  0  0
  -34.6522   26.9384  -31.4756 C   0  0  0  0  0  0  0  0  0  0  0  0
  -33.9482   26.8758  -32.8009 C   0  0  0  0  0  0  0  0  0  0  0  0
   -3.7416    8.1975  -42.3060 C   0  0  0  0  0  0  0  0  0  0  0  0
   -3.3598    8.9987  -41.0644 C   0  0  0  0  0  0  0  0  0  0  0  0
   -4.0792   10.3601  -40.8838 C   0  0  0  0  0  0  0  0  0  0  0  0
   -3.3128   11.6040  -40.4208 C   0  0  0  0  0  0  0  0  0  0  0  0
   -1.5828   11.5988  -40.1918 S   0  0  0  0  0  0  0  0  0  0  0  0
   -1.4710   13.2555  -39.6923 C   0  0  0  0  0  0  0  0  0  0  0  0
   -2.6849   13.8385  -39.6826 C   0  0  0  0  0  0  0  0  0  0  0  0
   -3.0208   15.2401  -39.3241 C   0  0  0  0  0  0  0  0  0  0  0  0
   -4.5206   15.5643  -39.0293 C   0  0  0  0  0  0  0  0  0  0  0  0
   -5.5344   14.6494  -39.6280 C   0  0  0  0  0  0  0  0  0  0  0  0
   -6.9142   14.9127  -39.7547 C   0  0  0  0  0  0  0  0  0  0  0  0
   -7.8372   14.0704  -40.3024 N   0  0  0  0  0  0  0  0  0  0  0  0
   -7.3742   12.8797  -40.7609 C   0  0  0  0  0  0  0  0  0  0  0  0
   -8.5299   11.6664  -41.5162 S   0  0  0  0  0  0  0  0  0  0  0  0
   -7.7887    9.9688  -41.8821 C   0  0  0  0  0  0  0  0  0  0  0  0
   -8.3589    8.8099  -41.0709 C   0  0  0  0  0  0  0  0  0  0  0  0
   -8.6802    8.9788  -39.9185 O   0  0  0  0  0  0  0  0  0  0  0  0
   -8.5498    7.4099  -41.6647 C   0  0  0  0  0  0  0  0  0  0  0  0
   -9.9801    6.9070  -41.3527 C   0  0  0  0  0  0  0  0  0  0  0  0
   -7.5396    6.4752  -41.0028 C   0  0  0  0  0  0  0  0  0  0  0  0
   -8.3417    7.4453  -43.1734 C   0  0  0  0  0  0  0  0  0  0  0  0
   -6.0651   12.5163  -40.6930 N   0  0  0  0  0  0  0  0  0  0  0  0
   -5.1533   13.3735  -40.1425 C   0  0  0  0  0  0  0  0  0  0  0  0
   -3.7454   12.8871  -40.1052 C   0  0  0  0  0  0  0  0  0  0  0  0
   -3.5754    2.8605    6.1326 C   0  0  0  0  0  0  0  0  0  0  0  0
   -3.2505    1.3929    6.4225 C   0  0  0  0  0  0  0  0  0  0  0  0
   -4.1850    0.6500    7.4277 C   0  0  0  0  0  0  0  0  0  0  0  0
   -3.6029   -0.2331    8.5411 C   0  0  0  0  0  0  0  0  0  0  0  0
   -1.8939   -0.3104    8.8736 S   0  0  0  0  0  0  0  0  0  0  0  0
   -2.0097   -1.4367   10.1794 C   0  0  0  0  0  0  0  0  0  0  0  0
   -3.2967   -1.7768   10.3920 C   0  0  0  0  0  0  0  0  0  0  0  0
   -3.8420   -2.7096   11.4034 C   0  0  0  0  0  0  0  0  0  0  0  0
   -5.2088   -3.3577   11.0544 C   0  0  0  0  0  0  0  0  0  0  0  0
   -6.1574   -2.4781   10.3247 C   0  0  0  0  0  0  0  0  0  0  0  0
   -7.5529   -2.6113   10.3074 C   0  0  0  0  0  0  0  0  0  0  0  0
   -8.4157   -1.8059    9.6420 N   0  0  0  0  0  0  0  0  0  0  0  0
   -7.8746   -0.7930    8.9416 C   0  0  0  0  0  0  0  0  0  0  0  0
   -8.9824    0.3263    8.0226 S   0  0  0  0  0  0  0  0  0  0  0  0
   -8.1000    1.5834    6.8604 C   0  0  0  0  0  0  0  0  0  0  0  0
   -8.1793    1.3027    5.3538 C   0  0  0  0  0  0  0  0  0  0  0  0
   -8.1280    0.1607    4.9598 O   0  0  0  0  0  0  0  0  0  0  0  0
   -8.3419    2.4354    4.2944 C   0  0  0  0  0  0  0  0  0  0  0  0
   -8.8089    3.7510    4.9598 C   0  0  0  0  0  0  0  0  0  0  0  0
   -9.4105    1.9868    3.2946 C   0  0  0  0  0  0  0  0  0  0  0  0
   -7.0177    2.6860    3.5812 C   0  0  0  0  0  0  0  0  0  0  0  0
   -6.5292   -0.5531    8.8778 N   0  0  0  0  0  0  0  0  0  0  0  0
   -5.6775   -1.3762    9.5598 C   0  0  0  0  0  0  0  0  0  0  0  0
   -4.2130   -1.0823    9.4510 C   0  0  0  0  0  0  0  0  0  0  0  0
    1.7084   14.2632  -34.3570 C   0  0  0  0  0  0  0  0  0  0  0  0
    0.6181   13.4531  -35.0519 C   0  0  0  0  0  0  0  0  0  0  0  0
    0.0194   12.2478  -34.2646 C   0  0  0  0  0  0  0  0  0  0  0  0
   -0.3146   10.9449  -34.9927 C   0  0  0  0  0  0  0  0  0  0  0  0
    0.2756   10.6116  -36.6068 S   0  0  0  0  0  0  0  0  0  0  0  0
   -0.4717    9.0619  -36.7435 C   0  0  0  0  0  0  0  0  0  0  0  0
   -1.1648    8.7592  -35.6259 C   0  0  0  0  0  0  0  0  0  0  0  0
   -1.9425    7.5226  -35.3434 C   0  0  0  0  0  0  0  0  0  0  0  0
   -2.9908    7.5887  -34.1896 C   0  0  0  0  0  0  0  0  0  0  0  0
   -2.7175    8.5747  -33.1040 C   0  0  0  0  0  0  0  0  0  0  0  0
   -3.2964    8.5640  -31.8167 C   0  0  0  0  0  0  0  0  0  0  0  0
   -3.0493    9.4631  -30.8249 N   0  0  0  0  0  0  0  0  0  0  0  0
   -2.1683   10.4458  -31.1110 C   0  0  0  0  0  0  0  0  0  0  0  0
   -1.7814   11.7008  -29.8373 S   0  0  0  0  0  0  0  0  0  0  0  0
   -0.7531   13.1850  -30.4587 C   0  0  0  0  0  0  0  0  0  0  0  0
   -1.5177   14.4798  -30.7608 C   0  0  0  0  0  0  0  0  0  0  0  0
   -2.6484   14.4204  -31.1858 O   0  0  0  0  0  0  0  0  0  0  0  0
   -0.8882   15.8811  -30.5234 C   0  0  0  0  0  0  0  0  0  0  0  0
   -1.6003   16.5718  -29.3439 C   0  0  0  0  0  0  0  0  0  0  0  0
   -1.0615   16.7440  -31.7699 C   0  0  0  0  0  0  0  0  0  0  0  0
    0.5910   15.7280  -30.1989 C   0  0  0  0  0  0  0  0  0  0  0  0
   -1.5393   10.5675  -32.3241 N   0  0  0  0  0  0  0  0  0  0  0  0
   -1.8002    9.6544  -33.3116 C   0  0  0  0  0  0  0  0  0  0  0  0
   -1.0765    9.8444  -34.6148 C   0  0  0  0  0  0  0  0  0  0  0  0
   -2.3062   58.8200   -8.4623 C   0  0  0  0  0  0  0  0  0  0  0  0
   -1.5997   60.0061   -7.8002 C   0  0  0  0  0  0  0  0  0  0  0  0
   -0.9467   59.7344   -6.4111 C   0  0  0  0  0  0  0  0  0  0  0  0
   -0.6323   60.8850   -5.4584 C   0  0  0  0  0  0  0  0  0  0  0  0
   -0.9152   62.5524   -5.8936 S   0  0  0  0  0  0  0  0  0  0  0  0
   -0.3461   63.2208   -4.3985 C   0  0  0  0  0  0  0  0  0  0  0  0
    0.0607   62.2420   -3.5631 C   0  0  0  0  0  0  0  0  0  0  0  0
    0.6096   62.3806   -2.1945 C   0  0  0  0  0  0  0  0  0  0  0  0
    1.4382   61.1790   -1.6465 C   0  0  0  0  0  0  0  0  0  0  0  0
    1.0593   59.8340   -2.1614 C   0  0  0  0  0  0  0  0  0  0  0  0
    1.3687   58.6001   -1.5562 C   0  0  0  0  0  0  0  0  0  0  0  0
    1.0221   57.3753   -2.0329 N   0  0  0  0  0  0  0  0  0  0  0  0
    0.3193   57.3544   -3.1839 C   0  0  0  0  0  0  0  0  0  0  0  0
   -0.1887   55.7537   -3.9060 S   0  0  0  0  0  0  0  0  0  0  0  0
   -0.9251   55.8697   -5.6723 C   0  0  0  0  0  0  0  0  0  0  0  0
   -0.0518   55.3355   -6.8181 C   0  0  0  0  0  0  0  0  0  0  0  0
    1.1404   55.5357   -6.7974 O   0  0  0  0  0  0  0  0  0  0  0  0
   -0.6417   54.5214   -8.0192 C   0  0  0  0  0  0  0  0  0  0  0  0
   -0.4583   55.3057   -9.3360 C   0  0  0  0  0  0  0  0  0  0  0  0
   -2.1354   54.2843   -7.8056 C   0  0  0  0  0  0  0  0  0  0  0  0
    0.0846   53.1899   -8.1171 C   0  0  0  0  0  0  0  0  0  0  0  0
   -0.0401   58.4796   -3.8626 N   0  0  0  0  0  0  0  0  0  0  0  0
    0.3135   59.7028   -3.3705 C   0  0  0  0  0  0  0  0  0  0  0  0
   -0.1080   60.8959   -4.1729 C   0  0  0  0  0  0  0  0  0  0  0  0
  -30.7981   32.3301  -37.9286 C   0  0  0  0  0  0  0  0  0  0  0  0
  -30.6011   31.2871  -36.8369 C   0  0  0  0  0  0  0  0  0  0  0  0
  -29.4600   31.5555  -35.8128 C   0  0  0  0  0  0  0  0  0  0  0  0
  -28.6776   30.3808  -35.2340 C   0  0  0  0  0  0  0  0  0  0  0  0
  -28.9015   28.7586  -35.8204 S   0  0  0  0  0  0  0  0  0  0  0  0
  -27.7528   28.0245  -34.7564 C   0  0  0  0  0  0  0  0  0  0  0  0
  -27.1903   28.9499  -33.9544 C   0  0  0  0  0  0  0  0  0  0  0  0
  -26.1640   28.7476  -32.9071 C   0  0  0  0  0  0  0  0  0  0  0  0
  -26.0718   29.8466  -31.8055 C   0  0  0  0  0  0  0  0  0  0  0  0
  -26.4014   31.2268  -32.2393 C   0  0  0  0  0  0  0  0  0  0  0  0
  -25.9964   32.4129  -31.5945 C   0  0  0  0  0  0  0  0  0  0  0  0
  -26.3032   33.6725  -31.9986 N   0  0  0  0  0  0  0  0  0  0  0  0
  -27.0627   33.7871  -33.1157 C   0  0  0  0  0  0  0  0  0  0  0  0
  -27.5311   35.4626  -33.7306 S   0  0  0  0  0  0  0  0  0  0  0  0
  -28.8472   35.4832  -35.1439 C   0  0  0  0  0  0  0  0  0  0  0  0
  -30.3068   35.8099  -34.7598 C   0  0  0  0  0  0  0  0  0  0  0  0
  -30.7449   35.4356  -33.6967 O   0  0  0  0  0  0  0  0  0  0  0  0
  -31.2620   36.6238  -35.6954 C   0  0  0  0  0  0  0  0  0  0  0  0
  -30.4596   37.3638  -36.7896 C   0  0  0  0  0  0  0  0  0  0  0  0
  -31.9996   37.6615  -34.8540 C   0  0  0  0  0  0  0  0  0  0  0  0
  -32.2558   35.6838  -36.3616 C   0  0  0  0  0  0  0  0  0  0  0  0
  -27.5165   32.7094  -33.8285 N   0  0  0  0  0  0  0  0  0  0  0  0
  -27.1948   31.4470  -33.4084 C   0  0  0  0  0  0  0  0  0  0  0  0
  -27.7217   30.3101  -34.2289 C   0  0  0  0  0  0  0  0  0  0  0  0
  1  2  1  0  0  0  0
  2  3  1  0  0  0  0
  3  4  1  0  0  0  0
  4  5  1  0  0  0  0
  5  6  1  0  0  0  0
  6  7  2  0  0  0  0
  7  8  1  0  0  0  0
  8  9  1  0  0  0  0
  9 10  1  0  0  0  0
 10 11  1  0  0  0  0
 11 12  2  0  0  0  0
 12 13  1  0  0  0  0
 13 14  1  0  0  0  0
 14 15  1  0  0  0  0
 15 16  1  0  0  0  0
 16 17  2  0  0  0  0
 16 18  1  0  0  0  0
 18 19  1  0  0  0  0
 18 20  1  0  0  0  0
 18 21  1  0  0  0  0
 13 22  2  0  0  0  0
 10 23  2  0  0  0  0
 22 23  1  0  0  0  0
  4 24  2  0  0  0  0
  7 24  1  0  0  0  0
 23 24  1  0  0  0  0
 25 26  1  0  0  0  0
 26 27  1  0  0  0  0
 27 28  1  0  0  0  0
 28 29  1  0  0  0  0
 29 30  1  0  0  0  0
 30 31  2  0  0  0  0
 31 32  1  0  0  0  0
 32 33  1  0  0  0  0
 33 34  1  0  0  0  0
 34 35  1  0  0  0  0
 35 36  2  0  0  0  0
 36 37  1  0  0  0  0
 37 38  1  0  0  0  0
 38 39  1  0  0  0  0
 39 40  1  0  0  0  0
 40 41  2  0  0  0  0
 40 42  1  0  0  0  0
 42 43  1  0  0  0  0
 42 44  1  0  0  0  0
 42 45  1  0  0  0  0
 37 46  2  0  0  0  0
 34 47  2  0  0  0  0
 46 47  1  0  0  0  0
 28 48  2  0  0  0  0
 31 48  1  0  0  0  0
 47 48  1  0  0  0  0
 49 50  1  0  0  0  0
 50 51  1  0  0  0  0
 51 52  1  0  0  0  0
 52 53  1  0  0  0  0
 53 54  1  0  0  0  0
 54 55  2  0  0  0  0
 55 56  1  0  0  0  0
 56 57  1  0  0  0  0
 57 58  1  0  0  0  0
 58 59  1  0  0  0  0
 59 60  2  0  0  0  0
 60 61  1  0  0  0  0
 61 62  1  0  0  0  0
 62 63  1  0  0  0  0
 63 64  1  0  0  0  0
 64 65  2  0  0  0  0
 64 66  1  0  0  0  0
 66 67  1  0  0  0  0
 66 68  1  0  0  0  0
 66 69  1  0  0  0  0
 61 70  2  0  0  0  0
 58 71  2  0  0  0  0
 70 71  1  0  0  0  0
 52 72  2  0  0  0  0
 55 72  1  0  0  0  0
 71 72  1  0  0  0  0
 73 74  1  0  0  0  0
 74 75  1  0  0  0  0
 75 76  1  0  0  0  0
 76 77  1  0  0  0  0
 77 78  1  0  0  0  0
 78 79  2  0  0  0  0
 79 80  1  0  0  0  0
 80 81  1  0  0  0  0
 81 82  1  0  0  0  0
 82 83  1  0  0  0  0
 83 84  2  0  0  0  0
 84 85  1  0  0  0  0
 85 86  1  0  0  0  0
 86 87  1  0  0  0  0
 87 88  1  0  0  0  0
 88 89  2  0  0  0  0
 88 90  1  0  0  0  0
 90 91  1  0  0  0  0
 90 92  1  0  0  0  0
 90 93  1  0  0  0  0
 85 94  2  0  0  0  0
 82 95  2  0  0  0  0
 94 95  1  0  0  0  0
 76 96  2  0  0  0  0
 79 96  1  0  0  0  0
 95 96  1  0  0  0  0
 97 98  1  0  0  0  0
 98 99  1  0  0  0  0
 99100  1  0  0  0  0
100101  1  0  0  0  0
101102  1  0  0  0  0
102103  2  0  0  0  0
103104  1  0  0  0  0
104105  1  0  0  0  0
105106  1  0  0  0  0
106107  1  0  0  0  0
107108  2  0  0  0  0
108109  1  0  0  0  0
109110  1  0  0  0  0
110111  1  0  0  0  0
111112  1  0  0  0  0
112113  2  0  0  0  0
112114  1  0  0  0  0
114115  1  0  0  0  0
114116  1  0  0  0  0
114117  1  0  0  0  0
109118  2  0  0  0  0
106119  2  0  0  0  0
118119  1  0  0  0  0
100120  2  0  0  0  0
103120  1  0  0  0  0
119120  1  0  0  0  0
121122  1  0  0  0  0
122123  1  0  0  0  0
123124  1  0  0  0  0
124125  1  0  0  0  0
125126  1  0  0  0  0
126127  2  0  0  0  0
127128  1  0  0  0  0
128129  1  0  0  0  0
129130  1  0  0  0  0
130131  1  0  0  0  0
131132  2  0  0  0  0
132133  1  0  0  0  0
133134  1  0  0  0  0
134135  1  0  0  0  0
135136  1  0  0  0  0
136137  2  0  0  0  0
136138  1  0  0  0  0
138139  1  0  0  0  0
138140  1  0  0  0  0
138141  1  0  0  0  0
133142  2  0  0  0  0
130143  2  0  0  0  0
142143  1  0  0  0  0
124144  2  0  0  0  0
127144  1  0  0  0  0
143144  1  0  0  0  0
M  END
$$$$
