9B6G
  PyMOL3.1          3D                             0

216224  0  0  0  0  0  0  0  0999 V2000
  208.4670  174.8020  205.3400 O   0  0  0  0  0  0  0  0  0  0  0  0
  209.0920  174.3830  206.2550 C   0  0  0  0  0  0  0  0  0  0  0  0
  210.3000  175.0840  206.6680 N   0  0  0  0  0  0  0  0  0  0  0  0
  211.1220  174.6370  207.7790 C   0  0  0  0  0  0  0  0  0  0  0  0
  212.2370  173.7060  207.3060 C   0  0  0  0  0  0  0  0  0  0  0  0
  213.5610  173.6780  207.8460 C   0  0  0  0  0  0  0  0  0  0  0  0
  214.3930  172.6210  207.1270 C   0  0  0  0  0  0  0  0  0  0  0  0
  213.5940  171.9740  206.1290 C   0  0  0  0  0  0  0  0  0  0  0  0
  212.1040  172.6030  206.1310 S   0  0  0  0  0  0  0  0  0  0  0  0
  210.6910  176.2830  205.9510 C   0  0  0  0  0  0  0  0  0  0  0  0
  210.0800  177.5160  206.6140 C   0  0  0  0  0  0  0  0  0  0  0  0
  210.0780  178.7320  205.6870 C   0  0  0  0  0  0  0  0  0  0  0  0
  209.9380  179.9560  206.4510 N   0  0  0  0  0  0  0  0  0  0  0  0
  208.6020  173.1120  206.9500 C   0  0  0  0  0  0  0  0  0  0  0  0
  208.0640  173.1590  208.2290 C   0  0  0  0  0  0  0  0  0  0  0  0
  207.9730  174.3830  208.9120 O   0  0  0  0  0  0  0  0  0  0  0  0
  208.3040  174.3110  210.2730 C   0  0  0  0  0  0  0  0  0  0  0  0
  208.4970  175.7230  210.8180 C   0  0  0  0  0  0  0  0  0  0  0  0
  207.5300  176.2820  211.6340 C   0  0  0  0  0  0  0  0  0  0  0  0
  207.7010  177.5610  212.1320 C   0  0  0  0  0  0  0  0  0  0  0  0
  206.6340  178.1790  213.0300 C   0  0  0  0  0  0  0  0  0  0  0  0
  208.8400  178.2810  211.8160 C   0  0  0  0  0  0  0  0  0  0  0  0
  209.8070  177.7210  211.0010 C   0  0  0  0  0  0  0  0  0  0  0  0
  209.6360  176.4420  210.5020 C   0  0  0  0  0  0  0  0  0  0  0  0
  207.6250  171.9900  208.8330 C   0  0  0  0  0  0  0  0  0  0  0  0
  207.7160  170.7800  208.1630 C   0  0  0  0  0  0  0  0  0  0  0  0
  208.2470  170.7360  206.8850 C   0  0  0  0  0  0  0  0  0  0  0  0
  208.6880  171.9000  206.2790 C   0  0  0  0  0  0  0  0  0  0  0  0
  211.5780  175.5060  208.2430 H   0  0  0  0  0  0  0  0  0  0  0  0
  210.5190  174.1260  208.5190 H   0  0  0  0  0  0  0  0  0  0  0  0
  213.9190  174.3150  208.6450 H   0  0  0  0  0  0  0  0  0  0  0  0
  215.4300  172.3930  207.3390 H   0  0  0  0  0  0  0  0  0  0  0  0
  213.9370  171.1830  205.4720 H   0  0  0  0  0  0  0  0  0  0  0  0
  211.7730  176.3700  205.9640 H   0  0  0  0  0  0  0  0  0  0  0  0
  210.3500  176.2190  204.9250 H   0  0  0  0  0  0  0  0  0  0  0  0
  209.0580  177.2900  206.9000 H   0  0  0  0  0  0  0  0  0  0  0  0
  210.6510  177.7520  207.5050 H   0  0  0  0  0  0  0  0  0  0  0  0
  209.2510  178.6480  204.9890 H   0  0  0  0  0  0  0  0  0  0  0  0
  211.0100  178.7610  205.1330 H   0  0  0  0  0  0  0  0  0  0  0  0
  210.1030  179.7680  207.4210 H   0  0  0  0  0  0  0  0  0  0  0  0
  210.6000  180.6350  206.1230 H   0  0  0  0  0  0  0  0  0  0  0  0
  209.2200  173.7460  210.3950 H   0  0  0  0  0  0  0  0  0  0  0  0
  207.5040  173.8260  210.8210 H   0  0  0  0  0  0  0  0  0  0  0  0
  206.6380  175.7180  211.8820 H   0  0  0  0  0  0  0  0  0  0  0  0
  206.1080  177.3920  213.5590 H   0  0  0  0  0  0  0  0  0  0  0  0
  205.9290  178.7410  212.4240 H   0  0  0  0  0  0  0  0  0  0  0  0
  207.1050  178.8430  213.7470 H   0  0  0  0  0  0  0  0  0  0  0  0
  208.9730  179.2830  212.2060 H   0  0  0  0  0  0  0  0  0  0  0  0
  210.6980  178.2840  210.7540 H   0  0  0  0  0  0  0  0  0  0  0  0
  210.3940  176.0040  209.8650 H   0  0  0  0  0  0  0  0  0  0  0  0
  207.2080  172.0200  209.8330 H   0  0  0  0  0  0  0  0  0  0  0  0
  207.3700  169.8700  208.6390 H   0  0  0  0  0  0  0  0  0  0  0  0
  208.3190  169.7910  206.3600 H   0  0  0  0  0  0  0  0  0  0  0  0
  209.1050  171.8650  205.2790 H   0  0  0  0  0  0  0  0  0  0  0  0
  174.8010  137.1310  205.3390 O   0  0  0  0  0  0  0  0  0  0  0  0
  174.3820  136.5060  206.2540 C   0  0  0  0  0  0  0  0  0  0  0  0
  175.0830  135.2980  206.6670 N   0  0  0  0  0  0  0  0  0  0  0  0
  174.6360  134.4750  207.7780 C   0  0  0  0  0  0  0  0  0  0  0  0
  173.7050  133.3600  207.3050 C   0  0  0  0  0  0  0  0  0  0  0  0
  173.6770  132.0360  207.8450 C   0  0  0  0  0  0  0  0  0  0  0  0
  172.6200  131.2040  207.1260 C   0  0  0  0  0  0  0  0  0  0  0  0
  171.9730  132.0030  206.1280 C   0  0  0  0  0  0  0  0  0  0  0  0
  172.6020  133.4930  206.1300 S   0  0  0  0  0  0  0  0  0  0  0  0
  176.2820  134.9070  205.9500 C   0  0  0  0  0  0  0  0  0  0  0  0
  177.5150  135.5180  206.6130 C   0  0  0  0  0  0  0  0  0  0  0  0
  178.7310  135.5200  205.6860 C   0  0  0  0  0  0  0  0  0  0  0  0
  179.9550  135.6610  206.4510 N   0  0  0  0  0  0  0  0  0  0  0  0
  173.1100  136.9950  206.9490 C   0  0  0  0  0  0  0  0  0  0  0  0
  173.1570  137.5330  208.2280 C   0  0  0  0  0  0  0  0  0  0  0  0
  174.3810  137.6240  208.9110 O   0  0  0  0  0  0  0  0  0  0  0  0
  174.3090  137.2930  210.2720 C   0  0  0  0  0  0  0  0  0  0  0  0
  175.7210  137.1010  210.8170 C   0  0  0  0  0  0  0  0  0  0  0  0
  176.2800  138.0680  211.6330 C   0  0  0  0  0  0  0  0  0  0  0  0
  177.5590  137.8970  212.1320 C   0  0  0  0  0  0  0  0  0  0  0  0
  178.1760  138.9640  213.0300 C   0  0  0  0  0  0  0  0  0  0  0  0
  178.2790  136.7580  211.8160 C   0  0  0  0  0  0  0  0  0  0  0  0
  177.7190  135.7910  211.0000 C   0  0  0  0  0  0  0  0  0  0  0  0
  176.4400  135.9620  210.5010 C   0  0  0  0  0  0  0  0  0  0  0  0
  171.9880  137.9720  208.8320 C   0  0  0  0  0  0  0  0  0  0  0  0
  170.7780  137.8810  208.1620 C   0  0  0  0  0  0  0  0  0  0  0  0
  170.7340  137.3500  206.8840 C   0  0  0  0  0  0  0  0  0  0  0  0
  171.8990  136.9090  206.2780 C   0  0  0  0  0  0  0  0  0  0  0  0
  175.5050  134.0200  208.2420 H   0  0  0  0  0  0  0  0  0  0  0  0
  174.1250  135.0780  208.5180 H   0  0  0  0  0  0  0  0  0  0  0  0
  174.3140  131.6780  208.6440 H   0  0  0  0  0  0  0  0  0  0  0  0
  172.3930  130.1670  207.3380 H   0  0  0  0  0  0  0  0  0  0  0  0
  171.1830  131.6600  205.4710 H   0  0  0  0  0  0  0  0  0  0  0  0
  176.3690  133.8250  205.9630 H   0  0  0  0  0  0  0  0  0  0  0  0
  176.2180  135.2480  204.9240 H   0  0  0  0  0  0  0  0  0  0  0  0
  177.2890  136.5400  206.8990 H   0  0  0  0  0  0  0  0  0  0  0  0
  177.7510  134.9470  207.5040 H   0  0  0  0  0  0  0  0  0  0  0  0
  178.6470  136.3470  204.9890 H   0  0  0  0  0  0  0  0  0  0  0  0
  178.7600  134.5880  205.1320 H   0  0  0  0  0  0  0  0  0  0  0  0
  179.7670  135.4950  207.4210 H   0  0  0  0  0  0  0  0  0  0  0  0
  180.6340  134.9990  206.1230 H   0  0  0  0  0  0  0  0  0  0  0  0
  173.7440  136.3770  210.3940 H   0  0  0  0  0  0  0  0  0  0  0  0
  173.8240  138.0930  210.8200 H   0  0  0  0  0  0  0  0  0  0  0  0
  175.7160  138.9590  211.8810 H   0  0  0  0  0  0  0  0  0  0  0  0
  177.3890  139.4900  213.5590 H   0  0  0  0  0  0  0  0  0  0  0  0
  178.7380  139.6690  212.4240 H   0  0  0  0  0  0  0  0  0  0  0  0
  178.8410  138.4930  213.7470 H   0  0  0  0  0  0  0  0  0  0  0  0
  179.2810  136.6250  212.2060 H   0  0  0  0  0  0  0  0  0  0  0  0
  178.2820  134.9000  210.7530 H   0  0  0  0  0  0  0  0  0  0  0  0
  176.0020  135.2040  209.8640 H   0  0  0  0  0  0  0  0  0  0  0  0
  172.0180  138.3890  209.8320 H   0  0  0  0  0  0  0  0  0  0  0  0
  169.8680  138.2270  208.6380 H   0  0  0  0  0  0  0  0  0  0  0  0
  169.7890  137.2780  206.3590 H   0  0  0  0  0  0  0  0  0  0  0  0
  171.8640  136.4920  205.2780 H   0  0  0  0  0  0  0  0  0  0  0  0
  137.1330  170.7980  205.3400 O   0  0  0  0  0  0  0  0  0  0  0  0
  136.5090  171.2170  206.2550 C   0  0  0  0  0  0  0  0  0  0  0  0
  135.3000  170.5160  206.6680 N   0  0  0  0  0  0  0  0  0  0  0  0
  134.4780  170.9630  207.7790 C   0  0  0  0  0  0  0  0  0  0  0  0
  133.3630  171.8940  207.3060 C   0  0  0  0  0  0  0  0  0  0  0  0
  132.0390  171.9220  207.8460 C   0  0  0  0  0  0  0  0  0  0  0  0
  131.2070  172.9790  207.1270 C   0  0  0  0  0  0  0  0  0  0  0  0
  132.0060  173.6260  206.1290 C   0  0  0  0  0  0  0  0  0  0  0  0
  133.4960  172.9970  206.1310 S   0  0  0  0  0  0  0  0  0  0  0  0
  134.9090  169.3170  205.9510 C   0  0  0  0  0  0  0  0  0  0  0  0
  135.5200  168.0840  206.6140 C   0  0  0  0  0  0  0  0  0  0  0  0
  135.5220  166.8680  205.6870 C   0  0  0  0  0  0  0  0  0  0  0  0
  135.6630  165.6440  206.4510 N   0  0  0  0  0  0  0  0  0  0  0  0
  136.9980  172.4880  206.9500 C   0  0  0  0  0  0  0  0  0  0  0  0
  137.5360  172.4410  208.2290 C   0  0  0  0  0  0  0  0  0  0  0  0
  137.6270  171.2170  208.9120 O   0  0  0  0  0  0  0  0  0  0  0  0
  137.2960  171.2890  210.2730 C   0  0  0  0  0  0  0  0  0  0  0  0
  137.1030  169.8770  210.8180 C   0  0  0  0  0  0  0  0  0  0  0  0
  138.0700  169.3180  211.6340 C   0  0  0  0  0  0  0  0  0  0  0  0
  137.8990  168.0390  212.1330 C   0  0  0  0  0  0  0  0  0  0  0  0
  138.9660  167.4220  213.0300 C   0  0  0  0  0  0  0  0  0  0  0  0
  136.7600  167.3190  211.8160 C   0  0  0  0  0  0  0  0  0  0  0  0
  135.7930  167.8790  211.0010 C   0  0  0  0  0  0  0  0  0  0  0  0
  135.9640  169.1580  210.5020 C   0  0  0  0  0  0  0  0  0  0  0  0
  137.9750  173.6100  208.8330 C   0  0  0  0  0  0  0  0  0  0  0  0
  137.8840  174.8200  208.1630 C   0  0  0  0  0  0  0  0  0  0  0  0
  137.3530  174.8640  206.8850 C   0  0  0  0  0  0  0  0  0  0  0  0
  136.9120  173.7000  206.2790 C   0  0  0  0  0  0  0  0  0  0  0  0
  134.0220  170.0940  208.2430 H   0  0  0  0  0  0  0  0  0  0  0  0
  135.0810  171.4740  208.5190 H   0  0  0  0  0  0  0  0  0  0  0  0
  131.6810  171.2850  208.6450 H   0  0  0  0  0  0  0  0  0  0  0  0
  130.1700  173.2070  207.3390 H   0  0  0  0  0  0  0  0  0  0  0  0
  131.6630  174.4170  205.4720 H   0  0  0  0  0  0  0  0  0  0  0  0
  133.8270  169.2300  205.9640 H   0  0  0  0  0  0  0  0  0  0  0  0
  135.2500  169.3810  204.9250 H   0  0  0  0  0  0  0  0  0  0  0  0
  136.5420  168.3100  206.9000 H   0  0  0  0  0  0  0  0  0  0  0  0
  134.9490  167.8480  207.5050 H   0  0  0  0  0  0  0  0  0  0  0  0
  136.3490  166.9520  204.9890 H   0  0  0  0  0  0  0  0  0  0  0  0
  134.5900  166.8390  205.1330 H   0  0  0  0  0  0  0  0  0  0  0  0
  135.4970  165.8320  207.4210 H   0  0  0  0  0  0  0  0  0  0  0  0
  135.0000  164.9650  206.1230 H   0  0  0  0  0  0  0  0  0  0  0  0
  136.3800  171.8540  210.3950 H   0  0  0  0  0  0  0  0  0  0  0  0
  138.0960  171.7740  210.8210 H   0  0  0  0  0  0  0  0  0  0  0  0
  138.9620  169.8820  211.8820 H   0  0  0  0  0  0  0  0  0  0  0  0
  139.4920  168.2080  213.5590 H   0  0  0  0  0  0  0  0  0  0  0  0
  139.6710  166.8590  212.4240 H   0  0  0  0  0  0  0  0  0  0  0  0
  138.4950  166.7570  213.7470 H   0  0  0  0  0  0  0  0  0  0  0  0
  136.6270  166.3170  212.2060 H   0  0  0  0  0  0  0  0  0  0  0  0
  134.9020  167.3160  210.7540 H   0  0  0  0  0  0  0  0  0  0  0  0
  135.2060  169.5960  209.8650 H   0  0  0  0  0  0  0  0  0  0  0  0
  138.3920  173.5800  209.8330 H   0  0  0  0  0  0  0  0  0  0  0  0
  138.2300  175.7300  208.6390 H   0  0  0  0  0  0  0  0  0  0  0  0
  137.2810  175.8090  206.3600 H   0  0  0  0  0  0  0  0  0  0  0  0
  136.4950  173.7350  205.2790 H   0  0  0  0  0  0  0  0  0  0  0  0
  170.7980  208.4670  205.3400 O   0  0  0  0  0  0  0  0  0  0  0  0
  171.2170  209.0910  206.2550 C   0  0  0  0  0  0  0  0  0  0  0  0
  170.5160  210.3000  206.6680 N   0  0  0  0  0  0  0  0  0  0  0  0
  170.9630  211.1220  207.7790 C   0  0  0  0  0  0  0  0  0  0  0  0
  171.8940  212.2370  207.3060 C   0  0  0  0  0  0  0  0  0  0  0  0
  171.9220  213.5610  207.8460 C   0  0  0  0  0  0  0  0  0  0  0  0
  172.9790  214.3930  207.1270 C   0  0  0  0  0  0  0  0  0  0  0  0
  173.6260  213.5940  206.1290 C   0  0  0  0  0  0  0  0  0  0  0  0
  172.9970  212.1040  206.1310 S   0  0  0  0  0  0  0  0  0  0  0  0
  169.3170  210.6910  205.9510 C   0  0  0  0  0  0  0  0  0  0  0  0
  168.0840  210.0800  206.6140 C   0  0  0  0  0  0  0  0  0  0  0  0
  166.8680  210.0780  205.6860 C   0  0  0  0  0  0  0  0  0  0  0  0
  165.6440  209.9370  206.4510 N   0  0  0  0  0  0  0  0  0  0  0  0
  172.4880  208.6020  206.9500 C   0  0  0  0  0  0  0  0  0  0  0  0
  172.4410  208.0640  208.2290 C   0  0  0  0  0  0  0  0  0  0  0  0
  171.2170  207.9730  208.9120 O   0  0  0  0  0  0  0  0  0  0  0  0
  171.2890  208.3040  210.2730 C   0  0  0  0  0  0  0  0  0  0  0  0
  169.8770  208.4960  210.8180 C   0  0  0  0  0  0  0  0  0  0  0  0
  169.3180  207.5300  211.6340 C   0  0  0  0  0  0  0  0  0  0  0  0
  168.0390  207.7010  212.1320 C   0  0  0  0  0  0  0  0  0  0  0  0
  167.4220  206.6340  213.0300 C   0  0  0  0  0  0  0  0  0  0  0  0
  167.3190  208.8400  211.8160 C   0  0  0  0  0  0  0  0  0  0  0  0
  167.8790  209.8070  211.0010 C   0  0  0  0  0  0  0  0  0  0  0  0
  169.1580  209.6360  210.5020 C   0  0  0  0  0  0  0  0  0  0  0  0
  173.6100  207.6250  208.8330 C   0  0  0  0  0  0  0  0  0  0  0  0
  174.8200  207.7160  208.1630 C   0  0  0  0  0  0  0  0  0  0  0  0
  174.8640  208.2470  206.8850 C   0  0  0  0  0  0  0  0  0  0  0  0
  173.7000  208.6880  206.2790 C   0  0  0  0  0  0  0  0  0  0  0  0
  170.0940  211.5780  208.2430 H   0  0  0  0  0  0  0  0  0  0  0  0
  171.4740  210.5190  208.5190 H   0  0  0  0  0  0  0  0  0  0  0  0
  171.2850  213.9190  208.6450 H   0  0  0  0  0  0  0  0  0  0  0  0
  173.2070  215.4300  207.3390 H   0  0  0  0  0  0  0  0  0  0  0  0
  174.4170  213.9370  205.4720 H   0  0  0  0  0  0  0  0  0  0  0  0
  169.2300  211.7730  205.9640 H   0  0  0  0  0  0  0  0  0  0  0  0
  169.3810  210.3500  204.9250 H   0  0  0  0  0  0  0  0  0  0  0  0
  168.3100  209.0580  206.9000 H   0  0  0  0  0  0  0  0  0  0  0  0
  167.8480  210.6510  207.5050 H   0  0  0  0  0  0  0  0  0  0  0  0
  166.9520  209.2510  204.9890 H   0  0  0  0  0  0  0  0  0  0  0  0
  166.8390  211.0100  205.1320 H   0  0  0  0  0  0  0  0  0  0  0  0
  165.8320  210.1030  207.4210 H   0  0  0  0  0  0  0  0  0  0  0  0
  164.9650  210.6000  206.1230 H   0  0  0  0  0  0  0  0  0  0  0  0
  171.8540  209.2200  210.3950 H   0  0  0  0  0  0  0  0  0  0  0  0
  171.7740  207.5040  210.8210 H   0  0  0  0  0  0  0  0  0  0  0  0
  169.8820  206.6380  211.8820 H   0  0  0  0  0  0  0  0  0  0  0  0
  168.2080  206.1080  213.5590 H   0  0  0  0  0  0  0  0  0  0  0  0
  166.8590  205.9290  212.4240 H   0  0  0  0  0  0  0  0  0  0  0  0
  166.7570  207.1050  213.7470 H   0  0  0  0  0  0  0  0  0  0  0  0
  166.3170  208.9730  212.2060 H   0  0  0  0  0  0  0  0  0  0  0  0
  167.3160  210.6980  210.7540 H   0  0  0  0  0  0  0  0  0  0  0  0
  169.5970  210.3940  209.8650 H   0  0  0  0  0  0  0  0  0  0  0  0
  173.5800  207.2080  209.8330 H   0  0  0  0  0  0  0  0  0  0  0  0
  175.7300  207.3690  208.6390 H   0  0  0  0  0  0  0  0  0  0  0  0
  175.8090  208.3190  206.3600 H   0  0  0  0  0  0  0  0  0  0  0  0
  173.7350  209.1050  205.2790 H   0  0  0  0  0  0  0  0  0  0  0  0
  1  2  2  0  0  0  0
  2  3  1  0  0  0  0
  3  4  1  0  0  0  0
  4  5  1  0  0  0  0
  5  6  2  0  0  0  0
  6  7  1  0  0  0  0
  7  8  2  0  0  0  0
  5  9  1  0  0  0  0
  8  9  1  0  0  0  0
  3 10  1  0  0  0  0
 10 11  1  0  0  0  0
 11 12  1  0  0  0  0
 12 13  1  0  0  0  0
  2 14  1  0  0  0  0
 14 15  2  0  0  0  0
 15 16  1  0  0  0  0
 16 17  1  0  0  0  0
 17 18  1  0  0  0  0
 18 19  1  0  0  0  0
 19 20  2  0  0  0  0
 20 21  1  0  0  0  0
 20 22  1  0  0  0  0
 22 23  2  0  0  0  0
 18 24  2  0  0  0  0
 23 24  1  0  0  0  0
 15 25  1  0  0  0  0
 25 26  2  0  0  0  0
 26 27  1  0  0  0  0
 14 28  1  0  0  0  0
 27 28  2  0  0  0  0
  4 29  1  0  0  0  0
  4 30  1  0  0  0  0
  6 31  1  0  0  0  0
  7 32  1  0  0  0  0
  8 33  1  0  0  0  0
 10 34  1  0  0  0  0
 10 35  1  0  0  0  0
 11 36  1  0  0  0  0
 11 37  1  0  0  0  0
 12 38  1  0  0  0  0
 12 39  1  0  0  0  0
 13 40  1  0  0  0  0
 13 41  1  0  0  0  0
 17 42  1  0  0  0  0
 17 43  1  0  0  0  0
 19 44  1  0  0  0  0
 21 45  1  0  0  0  0
 21 46  1  0  0  0  0
 21 47  1  0  0  0  0
 22 48  1  0  0  0  0
 23 49  1  0  0  0  0
 24 50  1  0  0  0  0
 25 51  1  0  0  0  0
 26 52  1  0  0  0  0
 27 53  1  0  0  0  0
 28 54  1  0  0  0  0
 55 56  2  0  0  0  0
 56 57  1  0  0  0  0
 57 58  1  0  0  0  0
 58 59  1  0  0  0  0
 59 60  2  0  0  0  0
 60 61  1  0  0  0  0
 61 62  2  0  0  0  0
 59 63  1  0  0  0  0
 62 63  1  0  0  0  0
 57 64  1  0  0  0  0
 64 65  1  0  0  0  0
 65 66  1  0  0  0  0
 66 67  1  0  0  0  0
 56 68  1  0  0  0  0
 68 69  2  0  0  0  0
 69 70  1  0  0  0  0
 70 71  1  0  0  0  0
 71 72  1  0  0  0  0
 72 73  1  0  0  0  0
 73 74  2  0  0  0  0
 74 75  1  0  0  0  0
 74 76  1  0  0  0  0
 76 77  2  0  0  0  0
 72 78  2  0  0  0  0
 77 78  1  0  0  0  0
 69 79  1  0  0  0  0
 79 80  2  0  0  0  0
 80 81  1  0  0  0  0
 68 82  1  0  0  0  0
 81 82  2  0  0  0  0
 58 83  1  0  0  0  0
 58 84  1  0  0  0  0
 60 85  1  0  0  0  0
 61 86  1  0  0  0  0
 62 87  1  0  0  0  0
 64 88  1  0  0  0  0
 64 89  1  0  0  0  0
 65 90  1  0  0  0  0
 65 91  1  0  0  0  0
 66 92  1  0  0  0  0
 66 93  1  0  0  0  0
 67 94  1  0  0  0  0
 67 95  1  0  0  0  0
 71 96  1  0  0  0  0
 71 97  1  0  0  0  0
 73 98  1  0  0  0  0
 75 99  1  0  0  0  0
 75100  1  0  0  0  0
 75101  1  0  0  0  0
 76102  1  0  0  0  0
 77103  1  0  0  0  0
 78104  1  0  0  0  0
 79105  1  0  0  0  0
 80106  1  0  0  0  0
 81107  1  0  0  0  0
 82108  1  0  0  0  0
109110  2  0  0  0  0
110111  1  0  0  0  0
111112  1  0  0  0  0
112113  1  0  0  0  0
113114  2  0  0  0  0
114115  1  0  0  0  0
115116  2  0  0  0  0
113117  1  0  0  0  0
116117  1  0  0  0  0
111118  1  0  0  0  0
118119  1  0  0  0  0
119120  1  0  0  0  0
120121  1  0  0  0  0
110122  1  0  0  0  0
122123  2  0  0  0  0
123124  1  0  0  0  0
124125  1  0  0  0  0
125126  1  0  0  0  0
126127  1  0  0  0  0
127128  2  0  0  0  0
128129  1  0  0  0  0
128130  1  0  0  0  0
130131  2  0  0  0  0
126132  2  0  0  0  0
131132  1  0  0  0  0
123133  1  0  0  0  0
133134  2  0  0  0  0
134135  1  0  0  0  0
122136  1  0  0  0  0
135136  2  0  0  0  0
112137  1  0  0  0  0
112138  1  0  0  0  0
114139  1  0  0  0  0
115140  1  0  0  0  0
116141  1  0  0  0  0
118142  1  0  0  0  0
118143  1  0  0  0  0
119144  1  0  0  0  0
119145  1  0  0  0  0
120146  1  0  0  0  0
120147  1  0  0  0  0
121148  1  0  0  0  0
121149  1  0  0  0  0
125150  1  0  0  0  0
125151  1  0  0  0  0
127152  1  0  0  0  0
129153  1  0  0  0  0
129154  1  0  0  0  0
129155  1  0  0  0  0
130156  1  0  0  0  0
131157  1  0  0  0  0
132158  1  0  0  0  0
133159  1  0  0  0  0
134160  1  0  0  0  0
135161  1  0  0  0  0
136162  1  0  0  0  0
163164  2  0  0  0  0
164165  1  0  0  0  0
165166  1  0  0  0  0
166167  1  0  0  0  0
167168  2  0  0  0  0
168169  1  0  0  0  0
169170  2  0  0  0  0
167171  1  0  0  0  0
170171  1  0  0  0  0
165172  1  0  0  0  0
172173  1  0  0  0  0
173174  1  0  0  0  0
174175  1  0  0  0  0
164176  1  0  0  0  0
176177  2  0  0  0  0
177178  1  0  0  0  0
178179  1  0  0  0  0
179180  1  0  0  0  0
180181  1  0  0  0  0
181182  2  0  0  0  0
182183  1  0  0  0  0
182184  1  0  0  0  0
184185  2  0  0  0  0
180186  2  0  0  0  0
185186  1  0  0  0  0
177187  1  0  0  0  0
187188  2  0  0  0  0
188189  1  0  0  0  0
176190  1  0  0  0  0
189190  2  0  0  0  0
166191  1  0  0  0  0
166192  1  0  0  0  0
168193  1  0  0  0  0
169194  1  0  0  0  0
170195  1  0  0  0  0
172196  1  0  0  0  0
172197  1  0  0  0  0
173198  1  0  0  0  0
173199  1  0  0  0  0
174200  1  0  0  0  0
174201  1  0  0  0  0
175202  1  0  0  0  0
175203  1  0  0  0  0
179204  1  0  0  0  0
179205  1  0  0  0  0
181206  1  0  0  0  0
183207  1  0  0  0  0
183208  1  0  0  0  0
183209  1  0  0  0  0
184210  1  0  0  0  0
185211  1  0  0  0  0
186212  1  0  0  0  0
187213  1  0  0  0  0
188214  1  0  0  0  0
189215  1  0  0  0  0
190216  1  0  0  0  0
M  END
$$$$
