8R4V
  PyMOL3.1          3D                             0

 42 46  0  0  0  0  0  0  0  0999 V2000
  -58.3270  -21.5100  -22.3540 C   0  0  0  0  0  0  0  0  0  0  0  0
  -57.2500  -21.5060  -21.5000 C   0  0  0  0  0  0  0  0  0  0  0  0
  -58.4920  -22.5810  -23.2160 C   0  0  0  0  0  0  0  0  0  0  0  0
  -50.6620  -30.4990  -19.8310 C   0  0  0  0  0  0  0  0  0  0  0  0
  -50.5000  -32.0730  -21.6180 C   0  0  0  0  0  0  0  0  0  0  0  0
  -50.7190  -29.4960  -20.7620 C   0  0  0  0  0  0  0  0  0  0  0  0
  -50.5680  -31.0660  -22.5480 C   0  0  0  0  0  0  0  0  0  0  0  0
  -54.7240  -28.5350  -19.9960 C   0  0  0  0  0  0  0  0  0  0  0  0
  -54.3750  -29.2150  -18.8530 C   0  0  0  0  0  0  0  0  0  0  0  0
  -53.1350  -27.2670  -18.0410 C   0  0  0  0  0  0  0  0  0  0  0  0
  -52.6980  -27.6960  -22.2260 C   0  0  0  0  0  0  0  0  0  0  0  0
  -52.8210  -26.2720  -24.4090 C   0  0  0  0  0  0  0  0  0  0  0  0
  -56.3590  -22.5720  -21.5120 C   0  0  0  0  0  0  0  0  0  0  0  0
  -57.6120  -23.6520  -23.2420 C   0  0  0  0  0  0  0  0  0  0  0  0
  -50.5630  -31.8010  -20.2740 C   0  0  0  0  0  0  0  0  0  0  0  0
  -50.6830  -29.7660  -22.1100 C   0  0  0  0  0  0  0  0  0  0  0  0
  -54.2740  -27.2270  -20.1480 C   0  0  0  0  0  0  0  0  0  0  0  0
  -56.5420  -23.6430  -22.3720 C   0  0  0  0  0  0  0  0  0  0  0  0
  -53.5910  -28.5820  -17.8980 C   0  0  0  0  0  0  0  0  0  0  0  0
  -53.4900  -26.5900  -19.1920 C   0  0  0  0  0  0  0  0  0  0  0  0
  -51.7820  -27.8680  -23.2270 C   0  0  0  0  0  0  0  0  0  0  0  0
  -53.6980  -26.7470  -22.4050 C   0  0  0  0  0  0  0  0  0  0  0  0
  -55.5640  -25.5480  -21.3030 C   0  0  0  0  0  0  0  0  0  0  0  0
  -50.3400  -34.1120  -20.1480 C   0  0  0  0  0  0  0  0  0  0  0  0
  -51.6260  -32.9480  -18.5120 C   0  0  0  0  0  0  0  0  0  0  0  0
  -50.0540  -35.2970  -19.2460 C   0  0  0  0  0  0  0  0  0  0  0  0
  -51.5900  -34.2960  -17.7980 C   0  0  0  0  0  0  0  0  0  0  0  0
  -55.2010  -22.5410  -20.5560 C   0  0  0  0  0  0  0  0  0  0  0  0
  -57.8210  -24.8230  -24.1910 C   0  0  0  0  0  0  0  0  0  0  0  0
  -50.1820  -36.0060  -17.0340 C   0  0  0  0  0  0  0  0  0  0  0  0
  -53.5280  -30.6610  -17.0030 C   0  0  0  0  0  0  0  0  0  0  0  0
  -52.6800  -24.8130  -18.1310 C   0  0  0  0  0  0  0  0  0  0  0  0
  -51.8310  -27.1670  -24.3460 N   0  0  0  0  0  0  0  0  0  0  0  0
  -53.7660  -26.0070  -23.5100 N   0  0  0  0  0  0  0  0  0  0  0  0
  -50.4750  -32.8850  -19.3590 N   0  0  0  0  0  0  0  0  0  0  0  0
  -50.2370  -34.8350  -17.8930 N   0  0  0  0  0  0  0  0  0  0  0  0
  -50.7400  -28.8000  -23.0960 N   0  0  0  0  0  0  0  0  0  0  0  0
  -55.6520  -24.7540  -22.4050 N   0  0  0  0  0  0  0  0  0  0  0  0
  -54.6440  -26.5710  -21.3610 N   0  0  0  0  0  0  0  0  0  0  0  0
  -56.2420  -25.3850  -20.3000 O   0  0  0  0  0  0  0  0  0  0  0  0
  -53.2380  -29.2860  -16.7540 O   0  0  0  0  0  0  0  0  0  0  0  0
  -53.0630  -25.2600  -19.4120 O   0  0  0  0  0  0  0  0  0  0  0  0
  1  2  2  0  0  0  0
  1  3  1  0  0  0  0
  4  6  2  0  0  0  0
  5  7  1  0  0  0  0
  8  9  1  0  0  0  0
  2 13  1  0  0  0  0
  3 14  2  0  0  0  0
  4 15  1  0  0  0  0
  5 15  2  0  0  0  0
  6 16  1  0  0  0  0
  7 16  2  0  0  0  0
  8 17  2  0  0  0  0
 13 18  2  0  0  0  0
 14 18  1  0  0  0  0
  9 19  2  0  0  0  0
 10 19  1  0  0  0  0
 10 20  2  0  0  0  0
 17 20  1  0  0  0  0
 11 21  2  0  0  0  0
 11 22  1  0  0  0  0
 24 26  1  0  0  0  0
 25 27  1  0  0  0  0
 13 28  1  0  0  0  0
 14 29  1  0  0  0  0
 12 33  2  0  0  0  0
 21 33  1  0  0  0  0
 12 34  1  0  0  0  0
 22 34  2  0  0  0  0
 15 35  1  0  0  0  0
 24 35  1  0  0  0  0
 25 35  1  0  0  0  0
 26 36  1  0  0  0  0
 27 36  1  0  0  0  0
 30 36  1  0  0  0  0
 16 37  1  0  0  0  0
 21 37  1  0  0  0  0
 18 38  1  0  0  0  0
 23 38  1  0  0  0  0
 17 39  1  0  0  0  0
 22 39  1  0  0  0  0
 23 39  1  0  0  0  0
 23 40  2  0  0  0  0
 19 41  1  0  0  0  0
 31 41  1  0  0  0  0
 20 42  1  0  0  0  0
 32 42  1  0  0  0  0
M  END
$$$$
