6ZG4
  PyMOL3.1          3D                             0

 26 28  0  0  0  0  0  0  0  0999 V2000
  -20.9970   22.0840    5.6110 C   0  0  0  0  0  0  0  0  0  0  0  0
  -24.5000   24.1070    7.6560 N   0  0  0  0  0  0  0  0  0  0  0  0
  -23.1380   24.0750    9.4690 O   0  0  0  0  0  0  0  0  0  0  0  0
  -21.8690   23.1650    6.3020 C   0  0  0  0  0  0  0  0  0  0  0  0
  -21.0930   16.6750    3.1880 N   0  0  0  0  0  0  0  0  0  0  0  0
  -21.2610   14.3290    3.4260 O   0  0  0  0  0  0  0  0  0  0  0  0
  -22.4630   22.6800    7.6560 C   0  0  0  0  0  0  0  0  0  0  0  0
  -21.7530   20.7170    5.5460 N   0  0  0  0  0  0  0  0  0  0  0  0
  -22.8150   15.4770    2.2050 O   0  0  0  0  0  0  0  0  0  0  0  0
  -23.1300   21.2690    7.6050 C   0  0  0  0  0  0  0  0  0  0  0  0
  -22.2430   20.1970    6.9420 C   0  0  0  0  0  0  0  0  0  0  0  0
  -23.4030   23.7010    8.3270 C   0  0  0  0  0  0  0  0  0  0  0  0
  -25.5680   25.0100    8.0840 C   0  0  0  0  0  0  0  0  0  0  0  0
  -26.3230   24.5230    9.3390 C   0  0  0  0  0  0  0  0  0  0  0  0
  -27.3250   23.8230    8.4110 C   0  0  0  0  0  0  0  0  0  0  0  0
  -21.0880   19.6680    4.6010 C   0  0  0  0  0  0  0  0  0  0  0  0
  -22.1920   18.9250    3.7970 C   0  0  0  0  0  0  0  0  0  0  0  0
  -21.6750   17.9580    2.6910 C   0  0  0  0  0  0  0  0  0  0  0  0
  -19.7130   16.6830    3.7490 C   0  0  0  0  0  0  0  0  0  0  0  0
  -19.1190   17.9810    4.3610 C   0  0  0  0  0  0  0  0  0  0  0  0
  -20.0450   18.7600    5.3230 C   0  0  0  0  0  0  0  0  0  0  0  0
  -21.6950   15.4060    2.9780 C   0  0  0  0  0  0  0  0  0  0  0  0
  -23.4910   14.3340    1.6670 C   0  0  0  0  0  0  0  0  0  0  0  0
  -22.7540   13.7440    0.4580 C   0  0  0  0  0  0  0  0  0  0  0  0
  -26.8710   24.7830    7.3020 C   0  0  0  0  0  0  0  0  0  0  0  0
  -25.1560   26.4930    8.1410 C   0  0  0  0  0  0  0  0  0  0  0  0
  1  4  1  0  0  0  0
  4  7  1  0  0  0  0
  1  8  1  0  0  0  0
  7 10  1  0  0  0  0
  8 11  1  0  0  0  0
 10 11  1  0  0  0  0
  2 12  1  0  0  0  0
  3 12  2  0  0  0  0
  7 12  1  0  0  0  0
  2 13  1  0  0  0  0
 13 14  1  0  0  0  0
 14 15  1  0  0  0  0
  8 16  1  0  0  0  0
 16 17  1  0  0  0  0
  5 18  1  0  0  0  0
 17 18  1  0  0  0  0
  5 19  1  0  0  0  0
 19 20  1  0  0  0  0
 16 21  1  0  0  0  0
 20 21  1  0  0  0  0
  5 22  1  0  0  0  0
  6 22  2  0  0  0  0
  9 22  1  0  0  0  0
  9 23  1  0  0  0  0
 23 24  1  0  0  0  0
 13 25  1  0  0  0  0
 15 25  1  0  0  0  0
 13 26  1  0  0  0  0
M  END
$$$$
