8V8A
  PyMOL3.1          3D                             0

175180  0  0  0  0  0  0  0  0999 V2000
  126.1760  145.1650  125.0620 Cl  0  0  0  0  0  0  0  0  0  0  0  0
  128.6610  142.4310  127.2470 C   0  0  0  0  0  0  0  0  0  0  0  0
  127.8100  143.3850  126.6190 O   0  0  0  0  0  0  0  0  0  0  0  0
  127.0720  144.2020  127.4250 C   0  0  0  0  0  0  0  0  0  0  0  0
  127.1170  144.1800  128.8080 C   0  0  0  0  0  0  0  0  0  0  0  0
  126.3390  145.0580  129.5400 C   0  0  0  0  0  0  0  0  0  0  0  0
  126.3680  145.1700  130.9000 O   0  0  0  0  0  0  0  0  0  0  0  0
  126.6730  144.0030  131.6550 C   0  0  0  0  0  0  0  0  0  0  0  0
  125.4900  145.9590  128.9020 C   0  0  0  0  0  0  0  0  0  0  0  0
  124.7590  146.8300  129.7360 N   0  0  0  0  0  0  0  0  0  0  0  0
  123.8240  147.7530  129.3520 C   0  0  0  0  0  0  0  0  0  0  0  0
  123.4110  147.8830  128.2030 O   0  0  0  0  0  0  0  0  0  0  0  0
  123.3360  148.5330  130.3870 N   0  0  0  0  0  0  0  0  0  0  0  0
  122.4750  149.6220  130.3110 C   0  0  0  0  0  0  0  0  0  0  0  0
  121.9190  150.1980  129.1530 C   0  0  0  0  0  0  0  0  0  0  0  0
  121.2000  151.2300  129.5950 C   0  0  0  0  0  0  0  0  0  0  0  0
  120.3760  152.2740  128.9320 C   0  0  0  0  0  0  0  0  0  0  0  0
  121.2780  151.3000  130.9390 O   0  0  0  0  0  0  0  0  0  0  0  0
  122.1060  150.2500  131.3940 N   0  0  0  0  0  0  0  0  0  0  0  0
  125.4420  145.9790  127.5140 C   0  0  0  0  0  0  0  0  0  0  0  0
  126.2320  145.1100  126.7920 C   0  0  0  0  0  0  0  0  0  0  0  0
  129.1230  141.9210  126.5640 H   0  0  0  0  0  0  0  0  0  0  0  0
  129.3040  142.8990  127.8020 H   0  0  0  0  0  0  0  0  0  0  0  0
  128.1210  141.8390  127.7950 H   0  0  0  0  0  0  0  0  0  0  0  0
  127.6720  143.5750  129.2450 H   0  0  0  0  0  0  0  0  0  0  0  0
  126.6600  144.2250  132.5990 H   0  0  0  0  0  0  0  0  0  0  0  0
  126.0090  143.3220  131.4660 H   0  0  0  0  0  0  0  0  0  0  0  0
  127.5540  143.6850  131.4030 H   0  0  0  0  0  0  0  0  0  0  0  0
  122.0300  149.9200  128.2720 H   0  0  0  0  0  0  0  0  0  0  0  0
  120.0040  152.8610  129.6090 H   0  0  0  0  0  0  0  0  0  0  0  0
  120.9380  152.7820  128.3270 H   0  0  0  0  0  0  0  0  0  0  0  0
  119.6610  151.8450  128.4370 H   0  0  0  0  0  0  0  0  0  0  0  0
  124.8790  146.5750  127.0730 H   0  0  0  0  0  0  0  0  0  0  0  0
  124.9180  146.7750  130.5790 H   0  0  0  0  0  0  0  0  0  0  0  0
  123.5980  148.3160  131.1770 H   0  0  0  0  0  0  0  0  0  0  0  0
  128.5170  128.8140  125.0590 Cl  0  0  0  0  0  0  0  0  0  0  0  0
  131.8850  130.3320  127.2440 C   0  0  0  0  0  0  0  0  0  0  0  0
  130.7150  129.8170  126.6160 O   0  0  0  0  0  0  0  0  0  0  0  0
  129.7100  129.3680  127.4220 C   0  0  0  0  0  0  0  0  0  0  0  0
  129.7460  129.4040  128.8050 C   0  0  0  0  0  0  0  0  0  0  0  0
  128.6700  128.9350  129.5370 C   0  0  0  0  0  0  0  0  0  0  0  0
  128.5720  128.9980  130.8970 O   0  0  0  0  0  0  0  0  0  0  0  0
  129.7770  128.9270  131.6520 C   0  0  0  0  0  0  0  0  0  0  0  0
  127.5500  128.4060  128.8990 C   0  0  0  0  0  0  0  0  0  0  0  0
  126.4970  127.9800  129.7340 N   0  0  0  0  0  0  0  0  0  0  0  0
  125.3300  127.3760  129.3510 C   0  0  0  0  0  0  0  0  0  0  0  0
  125.0790  127.0230  128.2020 O   0  0  0  0  0  0  0  0  0  0  0  0
  124.4370  127.1530  130.3860 N   0  0  0  0  0  0  0  0  0  0  0  0
  123.1360  126.6700  130.3100 C   0  0  0  0  0  0  0  0  0  0  0  0
  122.4160  126.3200  129.1520 C   0  0  0  0  0  0  0  0  0  0  0  0
  121.2120  125.9540  129.5950 C   0  0  0  0  0  0  0  0  0  0  0  0
  119.9650  125.4930  128.9320 C   0  0  0  0  0  0  0  0  0  0  0  0
  121.1700  126.0500  130.9390 O   0  0  0  0  0  0  0  0  0  0  0  0
  122.4250  126.5130  131.3930 N   0  0  0  0  0  0  0  0  0  0  0  0
  127.5170  128.3660  127.5110 C   0  0  0  0  0  0  0  0  0  0  0  0
  128.5870  128.8490  126.7890 C   0  0  0  0  0  0  0  0  0  0  0  0
  132.5130  130.6140  126.5600 H   0  0  0  0  0  0  0  0  0  0  0  0
  131.6390  131.0880  127.7990 H   0  0  0  0  0  0  0  0  0  0  0  0
  132.2820  129.6360  127.7910 H   0  0  0  0  0  0  0  0  0  0  0  0
  130.4920  129.7450  129.2420 H   0  0  0  0  0  0  0  0  0  0  0  0
  129.5620  128.9830  132.5960 H   0  0  0  0  0  0  0  0  0  0  0  0
  130.2190  128.0850  131.4630 H   0  0  0  0  0  0  0  0  0  0  0  0
  130.3510  129.6670  131.4000 H   0  0  0  0  0  0  0  0  0  0  0  0
  122.7140  126.3390  128.2710 H   0  0  0  0  0  0  0  0  0  0  0  0
  119.2920  125.3210  129.6090 H   0  0  0  0  0  0  0  0  0  0  0  0
  119.6550  126.1840  128.3270 H   0  0  0  0  0  0  0  0  0  0  0  0
  120.1520  124.6800  128.4370 H   0  0  0  0  0  0  0  0  0  0  0  0
  126.7760  128.0150  127.0710 H   0  0  0  0  0  0  0  0  0  0  0  0
  126.5980  128.1140  130.5770 H   0  0  0  0  0  0  0  0  0  0  0  0
  124.7250  127.3360  131.1760 H   0  0  0  0  0  0  0  0  0  0  0  0
  152.5150  140.5880  125.0610 Cl  0  0  0  0  0  0  0  0  0  0  0  0
  148.8990  141.3410  127.2460 C   0  0  0  0  0  0  0  0  0  0  0  0
  150.1470  141.0690  126.6180 O   0  0  0  0  0  0  0  0  0  0  0  0
  151.2240  140.8410  127.4240 C   0  0  0  0  0  0  0  0  0  0  0  0
  151.1750  140.8320  128.8070 C   0  0  0  0  0  0  0  0  0  0  0  0
  152.3210  140.5800  129.5390 C   0  0  0  0  0  0  0  0  0  0  0  0
  152.3630  140.4710  130.8990 O   0  0  0  0  0  0  0  0  0  0  0  0
  151.4300  141.2370  131.6540 C   0  0  0  0  0  0  0  0  0  0  0  0
  153.5370  140.3490  128.9010 C   0  0  0  0  0  0  0  0  0  0  0  0
  154.6400  140.0740  129.7360 N   0  0  0  0  0  0  0  0  0  0  0  0
  155.9380  139.8760  129.3520 C   0  0  0  0  0  0  0  0  0  0  0  0
  156.3490  140.0140  128.2030 O   0  0  0  0  0  0  0  0  0  0  0  0
  156.7920  139.5320  130.3870 N   0  0  0  0  0  0  0  0  0  0  0  0
  158.1280  139.1570  130.3110 C   0  0  0  0  0  0  0  0  0  0  0  0
  158.9170  139.0170  129.1520 C   0  0  0  0  0  0  0  0  0  0  0  0
  160.1060  138.6040  129.5950 C   0  0  0  0  0  0  0  0  0  0  0  0
  161.3850  138.2440  128.9320 C   0  0  0  0  0  0  0  0  0  0  0  0
  160.0830  138.5020  130.9390 O   0  0  0  0  0  0  0  0  0  0  0  0
  158.7960  138.8660  131.3930 N   0  0  0  0  0  0  0  0  0  0  0  0
  153.5880  140.3610  127.5130 C   0  0  0  0  0  0  0  0  0  0  0  0
  152.4380  140.6000  126.7910 C   0  0  0  0  0  0  0  0  0  0  0  0
  148.2250  141.4820  126.5630 H   0  0  0  0  0  0  0  0  0  0  0  0
  148.6530  140.5840  127.8010 H   0  0  0  0  0  0  0  0  0  0  0  0
  148.9870  142.1370  127.7940 H   0  0  0  0  0  0  0  0  0  0  0  0
  150.3710  140.9960  129.2440 H   0  0  0  0  0  0  0  0  0  0  0  0
  151.5710  141.0650  132.5980 H   0  0  0  0  0  0  0  0  0  0  0  0
  151.5680  142.1780  131.4650 H   0  0  0  0  0  0  0  0  0  0  0  0
  150.5310  140.9760  131.4020 H   0  0  0  0  0  0  0  0  0  0  0  0
  158.6640  139.1760  128.2720 H   0  0  0  0  0  0  0  0  0  0  0  0
  162.0310  137.9870  129.6090 H   0  0  0  0  0  0  0  0  0  0  0  0
  161.2290  137.5020  128.3270 H   0  0  0  0  0  0  0  0  0  0  0  0
  161.7120  139.0110  128.4370 H   0  0  0  0  0  0  0  0  0  0  0  0
  154.3930  140.2100  127.0730 H   0  0  0  0  0  0  0  0  0  0  0  0
  154.4790  140.0250  130.5790 H   0  0  0  0  0  0  0  0  0  0  0  0
  156.4520  139.5530  131.1770 H   0  0  0  0  0  0  0  0  0  0  0  0
  144.7860  125.9840  125.0580 Cl  0  0  0  0  0  0  0  0  0  0  0  0
  144.3820  129.6570  127.2440 C   0  0  0  0  0  0  0  0  0  0  0  0
  144.5110  128.3850  126.6150 O   0  0  0  0  0  0  0  0  0  0  0  0
  144.6270  127.2910  127.4210 C   0  0  0  0  0  0  0  0  0  0  0  0
  144.6040  127.3350  128.8040 C   0  0  0  0  0  0  0  0  0  0  0  0
  144.7180  126.1670  129.5360 C   0  0  0  0  0  0  0  0  0  0  0  0
  144.6280  126.0930  130.8960 O   0  0  0  0  0  0  0  0  0  0  0  0
  145.0670  127.2170  131.6510 C   0  0  0  0  0  0  0  0  0  0  0  0
  144.8750  124.9390  128.8980 C   0  0  0  0  0  0  0  0  0  0  0  0
  144.9550  123.8050  129.7330 N   0  0  0  0  0  0  0  0  0  0  0  0
  145.1690  122.5090  129.3490 C   0  0  0  0  0  0  0  0  0  0  0  0
  145.4270  122.1610  128.2000 O   0  0  0  0  0  0  0  0  0  0  0  0
  145.1060  121.5910  130.3840 N   0  0  0  0  0  0  0  0  0  0  0  0
  145.1630  120.2040  130.3080 C   0  0  0  0  0  0  0  0  0  0  0  0
  145.2740  119.4110  129.1500 C   0  0  0  0  0  0  0  0  0  0  0  0
  145.2500  118.1530  129.5930 C   0  0  0  0  0  0  0  0  0  0  0  0
  145.3030  116.8250  128.9300 C   0  0  0  0  0  0  0  0  0  0  0  0
  145.1460  118.1430  130.9370 O   0  0  0  0  0  0  0  0  0  0  0  0
  145.0930  119.4790  131.3910 N   0  0  0  0  0  0  0  0  0  0  0  0
  144.9030  124.8950  127.5100 C   0  0  0  0  0  0  0  0  0  0  0  0
  144.7740  126.0620  126.7880 C   0  0  0  0  0  0  0  0  0  0  0  0
  144.3080  130.3410  126.5600 H   0  0  0  0  0  0  0  0  0  0  0  0
  143.5870  129.6560  127.7980 H   0  0  0  0  0  0  0  0  0  0  0  0
  145.1670  129.8190  127.7910 H   0  0  0  0  0  0  0  0  0  0  0  0
  144.5110  128.1500  129.2410 H   0  0  0  0  0  0  0  0  0  0  0  0
  144.9470  127.0300  132.5950 H   0  0  0  0  0  0  0  0  0  0  0  0
  146.0050  127.3780  131.4630 H   0  0  0  0  0  0  0  0  0  0  0  0
  144.5410  127.9920  131.3990 H   0  0  0  0  0  0  0  0  0  0  0  0
  145.3480  119.7000  128.2690 H   0  0  0  0  0  0  0  0  0  0  0  0
  145.2590  116.1310  129.6070 H   0  0  0  0  0  0  0  0  0  0  0  0
  144.5500  116.7430  128.3250 H   0  0  0  0  0  0  0  0  0  0  0  0
  146.1340  116.7510  128.4350 H   0  0  0  0  0  0  0  0  0  0  0  0
  145.0080  124.0820  127.0700 H   0  0  0  0  0  0  0  0  0  0  0  0
  144.8590  123.9430  130.5760 H   0  0  0  0  0  0  0  0  0  0  0  0
  145.0210  121.9200  131.1740 H   0  0  0  0  0  0  0  0  0  0  0  0
  141.0120  152.4440  125.0550 Cl  0  0  0  0  0  0  0  0  0  0  0  0
  139.1790  149.2360  127.2400 C   0  0  0  0  0  0  0  0  0  0  0  0
  139.8230  150.3400  126.6120 O   0  0  0  0  0  0  0  0  0  0  0  0
  140.3720  151.2940  127.4180 C   0  0  0  0  0  0  0  0  0  0  0  0
  140.3650  151.2440  128.8010 C   0  0  0  0  0  0  0  0  0  0  0  0
  140.9590  152.2560  129.5330 C   0  0  0  0  0  0  0  0  0  0  0  0
  141.0750  152.2630  130.8930 O   0  0  0  0  0  0  0  0  0  0  0  0
  140.0590  151.6120  131.6480 C   0  0  0  0  0  0  0  0  0  0  0  0
  141.5540  153.3420  128.8950 C   0  0  0  0  0  0  0  0  0  0  0  0
  142.1560  154.3060  129.7300 N   0  0  0  0  0  0  0  0  0  0  0  0
  142.7450  155.4800  129.3460 C   0  0  0  0  0  0  0  0  0  0  0  0
  142.7410  155.9130  128.1970 O   0  0  0  0  0  0  0  0  0  0  0  0
  143.3360  156.1860  130.3810 N   0  0  0  0  0  0  0  0  0  0  0  0
  144.1050  157.3410  130.3050 C   0  0  0  0  0  0  0  0  0  0  0  0
  144.4820  158.0480  129.1470 C   0  0  0  0  0  0  0  0  0  0  0  0
  145.2410  159.0510  129.5900 C   0  0  0  0  0  0  0  0  0  0  0  0
  145.9790  160.1570  128.9270 C   0  0  0  0  0  0  0  0  0  0  0  0
  145.3310  158.9980  130.9340 O   0  0  0  0  0  0  0  0  0  0  0  0
  144.5880  157.8860  131.3880 N   0  0  0  0  0  0  0  0  0  0  0  0
  141.5580  153.3940  127.5070 C   0  0  0  0  0  0  0  0  0  0  0  0
  140.9760  152.3740  126.7850 C   0  0  0  0  0  0  0  0  0  0  0  0
  138.8370  148.6390  126.5560 H   0  0  0  0  0  0  0  0  0  0  0  0
  139.8230  148.7690  127.7950 H   0  0  0  0  0  0  0  0  0  0  0  0
  138.4490  149.5660  127.7870 H   0  0  0  0  0  0  0  0  0  0  0  0
  139.9610  150.5300  129.2380 H   0  0  0  0  0  0  0  0  0  0  0  0
  140.2660  151.6930  132.5920 H   0  0  0  0  0  0  0  0  0  0  0  0
  139.2060  152.0330  131.4590 H   0  0  0  0  0  0  0  0  0  0  0  0
  140.0290  150.6760  131.3960 H   0  0  0  0  0  0  0  0  0  0  0  0
  144.2520  157.8570  128.2660 H   0  0  0  0  0  0  0  0  0  0  0  0
  146.4220  160.6920  129.6040 H   0  0  0  0  0  0  0  0  0  0  0  0
  146.6360  159.7800  128.3220 H   0  0  0  0  0  0  0  0  0  0  0  0
  145.3500  160.7050  128.4320 H   0  0  0  0  0  0  0  0  0  0  0  0
  141.9510  154.1130  127.0670 H   0  0  0  0  0  0  0  0  0  0  0  0
  142.1530  154.1380  130.5730 H   0  0  0  0  0  0  0  0  0  0  0  0
  143.2110  155.8690  131.1710 H   0  0  0  0  0  0  0  0  0  0  0  0
  2  3  1  0  0  0  0
  3  4  1  0  0  0  0
  4  5  1  0  0  0  0
  5  6  2  0  0  0  0
  6  7  1  0  0  0  0
  7  8  1  0  0  0  0
  6  9  1  0  0  0  0
  9 10  1  0  0  0  0
 10 11  1  0  0  0  0
 11 12  2  0  0  0  0
 11 13  1  0  0  0  0
 13 14  1  0  0  0  0
 14 15  1  0  0  0  0
 15 16  2  0  0  0  0
 16 17  1  0  0  0  0
 16 18  1  0  0  0  0
 14 19  2  0  0  0  0
 18 19  1  0  0  0  0
  9 20  2  0  0  0  0
  1 21  1  0  0  0  0
  4 21  2  0  0  0  0
 20 21  1  0  0  0  0
  2 22  1  0  0  0  0
  2 23  1  0  0  0  0
  2 24  1  0  0  0  0
  5 25  1  0  0  0  0
  8 26  1  0  0  0  0
  8 27  1  0  0  0  0
  8 28  1  0  0  0  0
 15 29  1  0  0  0  0
 17 30  1  0  0  0  0
 17 31  1  0  0  0  0
 17 32  1  0  0  0  0
 20 33  1  0  0  0  0
 10 34  1  0  0  0  0
 13 35  1  0  0  0  0
 37 38  1  0  0  0  0
 38 39  1  0  0  0  0
 39 40  1  0  0  0  0
 40 41  2  0  0  0  0
 41 42  1  0  0  0  0
 42 43  1  0  0  0  0
 41 44  1  0  0  0  0
 44 45  1  0  0  0  0
 45 46  1  0  0  0  0
 46 47  2  0  0  0  0
 46 48  1  0  0  0  0
 48 49  1  0  0  0  0
 49 50  1  0  0  0  0
 50 51  2  0  0  0  0
 51 52  1  0  0  0  0
 51 53  1  0  0  0  0
 49 54  2  0  0  0  0
 53 54  1  0  0  0  0
 44 55  2  0  0  0  0
 36 56  1  0  0  0  0
 39 56  2  0  0  0  0
 55 56  1  0  0  0  0
 37 57  1  0  0  0  0
 37 58  1  0  0  0  0
 37 59  1  0  0  0  0
 40 60  1  0  0  0  0
 43 61  1  0  0  0  0
 43 62  1  0  0  0  0
 43 63  1  0  0  0  0
 50 64  1  0  0  0  0
 52 65  1  0  0  0  0
 52 66  1  0  0  0  0
 52 67  1  0  0  0  0
 55 68  1  0  0  0  0
 45 69  1  0  0  0  0
 48 70  1  0  0  0  0
 72 73  1  0  0  0  0
 73 74  1  0  0  0  0
 74 75  1  0  0  0  0
 75 76  2  0  0  0  0
 76 77  1  0  0  0  0
 77 78  1  0  0  0  0
 76 79  1  0  0  0  0
 79 80  1  0  0  0  0
 80 81  1  0  0  0  0
 81 82  2  0  0  0  0
 81 83  1  0  0  0  0
 83 84  1  0  0  0  0
 84 85  1  0  0  0  0
 85 86  2  0  0  0  0
 86 87  1  0  0  0  0
 86 88  1  0  0  0  0
 84 89  2  0  0  0  0
 88 89  1  0  0  0  0
 79 90  2  0  0  0  0
 71 91  1  0  0  0  0
 74 91  2  0  0  0  0
 90 91  1  0  0  0  0
 72 92  1  0  0  0  0
 72 93  1  0  0  0  0
 72 94  1  0  0  0  0
 75 95  1  0  0  0  0
 78 96  1  0  0  0  0
 78 97  1  0  0  0  0
 78 98  1  0  0  0  0
 85 99  1  0  0  0  0
 87100  1  0  0  0  0
 87101  1  0  0  0  0
 87102  1  0  0  0  0
 90103  1  0  0  0  0
 80104  1  0  0  0  0
 83105  1  0  0  0  0
107108  1  0  0  0  0
108109  1  0  0  0  0
109110  1  0  0  0  0
110111  2  0  0  0  0
111112  1  0  0  0  0
112113  1  0  0  0  0
111114  1  0  0  0  0
114115  1  0  0  0  0
115116  1  0  0  0  0
116117  2  0  0  0  0
116118  1  0  0  0  0
118119  1  0  0  0  0
119120  1  0  0  0  0
120121  2  0  0  0  0
121122  1  0  0  0  0
121123  1  0  0  0  0
119124  2  0  0  0  0
123124  1  0  0  0  0
114125  2  0  0  0  0
106126  1  0  0  0  0
109126  2  0  0  0  0
125126  1  0  0  0  0
107127  1  0  0  0  0
107128  1  0  0  0  0
107129  1  0  0  0  0
110130  1  0  0  0  0
113131  1  0  0  0  0
113132  1  0  0  0  0
113133  1  0  0  0  0
120134  1  0  0  0  0
122135  1  0  0  0  0
122136  1  0  0  0  0
122137  1  0  0  0  0
125138  1  0  0  0  0
115139  1  0  0  0  0
118140  1  0  0  0  0
142143  1  0  0  0  0
143144  1  0  0  0  0
144145  1  0  0  0  0
145146  2  0  0  0  0
146147  1  0  0  0  0
147148  1  0  0  0  0
146149  1  0  0  0  0
149150  1  0  0  0  0
150151  1  0  0  0  0
151152  2  0  0  0  0
151153  1  0  0  0  0
153154  1  0  0  0  0
154155  1  0  0  0  0
155156  2  0  0  0  0
156157  1  0  0  0  0
156158  1  0  0  0  0
154159  2  0  0  0  0
158159  1  0  0  0  0
149160  2  0  0  0  0
141161  1  0  0  0  0
144161  2  0  0  0  0
160161  1  0  0  0  0
142162  1  0  0  0  0
142163  1  0  0  0  0
142164  1  0  0  0  0
145165  1  0  0  0  0
148166  1  0  0  0  0
148167  1  0  0  0  0
148168  1  0  0  0  0
155169  1  0  0  0  0
157170  1  0  0  0  0
157171  1  0  0  0  0
157172  1  0  0  0  0
160173  1  0  0  0  0
150174  1  0  0  0  0
153175  1  0  0  0  0
M  END
$$$$
