8YN7
  PyMOL3.1          3D                             0

 12 13  0  0  0  0  0  0  0  0999 V2000
   91.1840  123.0480  118.6190 N   0  0  0  0  0  0  0  0  0  0  0  0
   90.1290  123.8050  118.8510 C   0  0  0  0  0  0  0  0  0  0  0  0
   89.1540  123.3720  119.7310 C   0  0  0  0  0  0  0  0  0  0  0  0
   89.3000  122.1460  120.3530 C   0  0  0  0  0  0  0  0  0  0  0  0
   90.4230  121.3840  120.0830 C   0  0  0  0  0  0  0  0  0  0  0  0
   91.3640  121.8730  119.1930 C   0  0  0  0  0  0  0  0  0  0  0  0
   88.2390  121.6490  121.3300 C   0  0  0  0  0  0  0  0  0  0  0  0
   86.9850  121.2160  120.5760 C   0  0  0  0  0  0  0  0  0  0  0  0
   86.0860  122.0360  119.9190 C   0  0  0  0  0  0  0  0  0  0  0  0
   85.1470  121.2600  119.4090 N   0  0  0  0  0  0  0  0  0  0  0  0
   85.4260  120.0090  119.7230 C   0  0  0  0  0  0  0  0  0  0  0  0
   86.5400  119.9810  120.4320 N   0  0  0  0  0  0  0  0  0  0  0  0
  1  2  2  0  0  0  0
  2  3  1  0  0  0  0
  3  4  2  0  0  0  0
  4  5  1  0  0  0  0
  1  6  1  0  0  0  0
  5  6  2  0  0  0  0
  4  7  1  0  0  0  0
  7  8  1  0  0  0  0
  8  9  2  0  0  0  0
  9 10  1  0  0  0  0
 10 11  1  0  0  0  0
  8 12  1  0  0  0  0
 11 12  2  0  0  0  0
M  END
$$$$
