8JZX
  PyMOL3.1          3D                             0

 32 35  0  0  0  0  0  0  0  0999 V2000
  133.7790  131.7230  119.4210 C   0  0  0  0  0  0  0  0  0  0  0  0
  133.5730  131.6220  117.9100 C   0  0  0  0  0  0  0  0  0  0  0  0
  133.4130  132.9270  117.4460 O   0  0  0  0  0  0  0  0  0  0  0  0
  133.1160  133.1290  116.0880 C   0  0  0  0  0  0  0  0  0  0  0  0
  134.1310  133.1570  115.1480 C   0  0  0  0  0  0  0  0  0  0  0  0
  133.8410  133.3850  113.8100 C   0  0  0  0  0  0  0  0  0  0  0  0
  132.5320  133.6160  113.4230 C   0  0  0  0  0  0  0  0  0  0  0  0
  131.5160  133.6130  114.3670 C   0  0  0  0  0  0  0  0  0  0  0  0
  131.8100  133.3830  115.7010 C   0  0  0  0  0  0  0  0  0  0  0  0
  132.1730  133.8780  111.9590 C   0  0  0  0  0  0  0  0  0  0  0  0
  133.1230  133.9860  111.0090 N   0  0  0  0  0  0  0  0  0  0  0  0
  132.7670  134.2240  109.6820 C   0  0  0  0  0  0  0  0  0  0  0  0
  133.7840  134.3360  108.6890 C   0  0  0  0  0  0  0  0  0  0  0  0
  133.4400  134.5690  107.3630 C   0  0  0  0  0  0  0  0  0  0  0  0
  132.0970  134.7010  107.0070 C   0  0  0  0  0  0  0  0  0  0  0  0
  131.1030  134.5940  107.9740 C   0  0  0  0  0  0  0  0  0  0  0  0
  131.4550  134.3510  109.3340 C   0  0  0  0  0  0  0  0  0  0  0  0
  130.4750  134.2380  110.3300 C   0  0  0  0  0  0  0  0  0  0  0  0
  130.8360  134.0080  111.6190 C   0  0  0  0  0  0  0  0  0  0  0  0
  128.9840  134.3750  110.0160 C   0  0  0  0  0  0  0  0  0  0  0  0
  128.4180  133.5360  109.4010 O   0  0  0  0  0  0  0  0  0  0  0  0
  128.2680  135.5470  110.5020 N   0  0  0  0  0  0  0  0  0  0  0  0
  126.8460  135.7180  110.2410 C   0  0  0  0  0  0  0  0  0  0  0  0
  126.5190  137.1930  109.9850 C   0  0  0  0  0  0  0  0  0  0  0  0
  125.3610  137.7400  110.8290 C   0  0  0  0  0  0  0  0  0  0  0  0
  124.4320  136.9670  110.9250 N   0  0  0  0  0  0  0  0  0  0  0  0
  123.4830  137.3170  109.8990 C   0  0  0  0  0  0  0  0  0  0  0  0
  122.1910  136.5000  109.9840 C   0  0  0  0  0  0  0  0  0  0  0  0
  121.6200  136.5600  111.3070 C   0  0  0  0  0  0  0  0  0  0  0  0
  122.5510  136.2310  112.3600 C   0  0  0  0  0  0  0  0  0  0  0  0
  123.8660  137.0100  112.2580 C   0  0  0  0  0  0  0  0  0  0  0  0
  124.8200  136.4110  113.2970 C   0  0  0  0  0  0  0  0  0  0  0  0
  1  2  1  0  0  0  0
  2  3  1  0  0  0  0
  3  4  1  0  0  0  0
  4  5  2  0  0  0  0
  5  6  1  0  0  0  0
  6  7  2  0  0  0  0
  7  8  1  0  0  0  0
  4  9  1  0  0  0  0
  8  9  2  0  0  0  0
  7 10  1  0  0  0  0
 10 11  2  0  0  0  0
 11 12  1  0  0  0  0
 12 13  2  0  0  0  0
 13 14  1  0  0  0  0
 14 15  2  0  0  0  0
 15 16  1  0  0  0  0
 12 17  1  0  0  0  0
 16 17  2  0  0  0  0
 17 18  1  0  0  0  0
 10 19  1  0  0  0  0
 18 19  2  0  0  0  0
 18 20  1  0  0  0  0
 20 21  2  0  0  0  0
 20 22  1  0  0  0  0
 22 23  1  0  0  0  0
 23 24  1  0  0  0  0
 24 25  1  0  0  0  0
 25 26  1  0  0  0  0
 26 27  1  0  0  0  0
 27 28  1  0  0  0  0
 28 29  1  0  0  0  0
 29 30  1  0  0  0  0
 26 31  1  0  0  0  0
 30 31  1  0  0  0  0
 31 32  1  0  0  0  0
M  END
$$$$
