7M40
  PyMOL3.1          3D                             0

 45 47  0  0  0  0  0  0  0  0999 V2000
    2.2600    3.8870   13.5370 N   0  0  0  0  0  0  0  0  0  0  0  0
    3.1020   -1.2570   13.6090 C   0  0  0  0  0  0  0  0  0  0  0  0
    1.8840   -0.8640   14.2500 O   0  0  0  0  0  0  0  0  0  0  0  0
    1.7510    0.4460   14.6490 C   0  0  0  0  0  0  0  0  0  0  0  0
    1.8100    6.0380   12.8420 N   0  0  0  0  0  0  0  0  0  0  0  0
    0.5600   -0.5140   16.4480 O   0  0  0  0  0  0  0  0  0  0  0  0
    2.2260    1.5280   13.9580 C   0  0  0  0  0  0  0  0  0  0  0  0
   -1.6850    8.4140   10.8730 N   0  0  0  0  0  0  0  0  0  0  0  0
    1.8700    2.8450   14.3470 C   0  0  0  0  0  0  0  0  0  0  0  0
    0.9310    5.4030   14.8760 N   0  0  0  0  0  0  0  0  0  0  0  0
    1.7140    5.0980   13.8120 C   0  0  0  0  0  0  0  0  0  0  0  0
   -0.2430    4.7200   16.7690 N   0  0  0  0  0  0  0  0  0  0  0  0
    1.2450    7.3780   12.9190 C   0  0  0  0  0  0  0  0  0  0  0  0
   -0.2660    7.3730   12.6740 C   0  0  0  0  0  0  0  0  0  0  0  0
   -0.8340    8.6450   12.0550 C   0  0  0  0  0  0  0  0  0  0  0  0
   -0.8810    7.9980    9.7300 C   0  0  0  0  0  0  0  0  0  0  0  0
   -2.4640    9.6240   10.5310 C   0  0  0  0  0  0  0  0  0  0  0  0
    0.5850    4.4090   15.6970 C   0  0  0  0  0  0  0  0  0  0  0  0
    1.0180    3.0340   15.4720 C   0  0  0  0  0  0  0  0  0  0  0  0
    0.5770    1.9010   16.1970 C   0  0  0  0  0  0  0  0  0  0  0  0
    0.9370    0.6380   15.8100 C   0  0  0  0  0  0  0  0  0  0  0  0
    0.4140   -0.4770   17.8700 C   0  0  0  0  0  0  0  0  0  0  0  0
   26.3890   31.1680   39.5150 N   0  0  0  0  0  0  0  0  0  0  0  0
   26.3720   26.0520   39.6340 C   0  0  0  0  0  0  0  0  0  0  0  0
   26.8900   26.5150   38.3800 O   0  0  0  0  0  0  0  0  0  0  0  0
   26.7340   27.8410   38.0560 C   0  0  0  0  0  0  0  0  0  0  0  0
   26.8250   33.3390   40.1120 N   0  0  0  0  0  0  0  0  0  0  0  0
   27.2080   27.0570   35.8740 O   0  0  0  0  0  0  0  0  0  0  0  0
   26.4740   28.8460   38.9530 C   0  0  0  0  0  0  0  0  0  0  0  0
   30.6390   35.9360   41.0780 N   0  0  0  0  0  0  0  0  0  0  0  0
   26.4990   30.2040   38.5440 C   0  0  0  0  0  0  0  0  0  0  0  0
   26.8600   32.8560   37.8660 N   0  0  0  0  0  0  0  0  0  0  0  0
   26.6390   32.4350   39.1270 C   0  0  0  0  0  0  0  0  0  0  0  0
   27.0550   32.4390   35.6000 N   0  0  0  0  0  0  0  0  0  0  0  0
   27.1850   34.7360   39.9260 C   0  0  0  0  0  0  0  0  0  0  0  0
   28.7110   34.8880   39.8450 C   0  0  0  0  0  0  0  0  0  0  0  0
   29.2830   36.1210   40.5350 C   0  0  0  0  0  0  0  0  0  0  0  0
   30.6710   36.2570   42.5120 C   0  0  0  0  0  0  0  0  0  0  0  0
   31.6090   36.7610   40.3550 C   0  0  0  0  0  0  0  0  0  0  0  0
   26.9090   31.9450   36.8990 C   0  0  0  0  0  0  0  0  0  0  0  0
   26.6640   33.8010   35.2140 C   0  0  0  0  0  0  0  0  0  0  0  0
   26.7690   30.5200   37.1840 C   0  0  0  0  0  0  0  0  0  0  0  0
   27.0000   29.4580   36.2600 C   0  0  0  0  0  0  0  0  0  0  0  0
   26.9840   28.1510   36.6790 C   0  0  0  0  0  0  0  0  0  0  0  0
   27.1720   27.2420   34.4540 C   0  0  0  0  0  0  0  0  0  0  0  0
  2  3  1  0  0  0  0
  3  4  1  0  0  0  0
  4  7  2  0  0  0  0
  1  9  2  0  0  0  0
  7  9  1  0  0  0  0
  1 11  1  0  0  0  0
  5 11  1  0  0  0  0
 10 11  2  0  0  0  0
  5 13  1  0  0  0  0
 13 14  1  0  0  0  0
  8 15  1  0  0  0  0
 14 15  1  0  0  0  0
  8 16  1  0  0  0  0
  8 17  1  0  0  0  0
 10 18  1  0  0  0  0
 12 18  1  0  0  0  0
  9 19  1  0  0  0  0
 18 19  2  0  0  0  0
 19 20  1  0  0  0  0
  4 21  1  0  0  0  0
  6 21  1  0  0  0  0
 20 21  2  0  0  0  0
  6 22  1  0  0  0  0
 24 25  1  0  0  0  0
 25 26  1  0  0  0  0
 26 29  2  0  0  0  0
 23 31  2  0  0  0  0
 29 31  1  0  0  0  0
 23 33  1  0  0  0  0
 27 33  1  0  0  0  0
 32 33  2  0  0  0  0
 27 35  1  0  0  0  0
 35 36  1  0  0  0  0
 30 37  1  0  0  0  0
 36 37  1  0  0  0  0
 30 38  1  0  0  0  0
 30 39  1  0  0  0  0
 32 40  1  0  0  0  0
 34 40  1  0  0  0  0
 34 41  1  0  0  0  0
 31 42  1  0  0  0  0
 40 42  2  0  0  0  0
 42 43  1  0  0  0  0
 26 44  1  0  0  0  0
 28 44  1  0  0  0  0
 43 44  2  0  0  0  0
 28 45  1  0  0  0  0
M  END
$$$$
