8G59
  PyMOL3.1          3D                             0

 27 29  0  0  0  0  0  0  0  0999 V2000
   96.1020  121.3790  115.7830 C   0  0  0  0  0  0  0  0  0  0  0  0
   96.9000  123.9740  118.4700 O   0  0  0  0  0  0  0  0  0  0  0  0
   96.1460  122.0420  117.1050 C   0  0  0  0  0  0  0  0  0  0  0  0
  102.1120  128.8470  123.2420 O   0  0  0  0  0  0  0  0  0  0  0  0
   97.2760  121.3750  114.7240 C   0  0  0  0  0  0  0  0  0  0  0  0
  102.4900  130.2730  121.5950 O   0  0  0  0  0  0  0  0  0  0  0  0
   97.3660  122.8670  117.6710 C   0  0  0  0  0  0  0  0  0  0  0  0
   99.6490  126.2330  120.8580 C   0  0  0  0  0  0  0  0  0  0  0  0
  100.6810  127.0130  121.7170 C   0  0  0  0  0  0  0  0  0  0  0  0
   94.9030  120.7060  115.4830 C   0  0  0  0  0  0  0  0  0  0  0  0
   95.0630  121.9980  117.9690 C   0  0  0  0  0  0  0  0  0  0  0  0
   97.7840  124.7410  119.2610 C   0  0  0  0  0  0  0  0  0  0  0  0
   97.5510  120.2290  113.9710 C   0  0  0  0  0  0  0  0  0  0  0  0
   98.1310  122.5130  114.4530 C   0  0  0  0  0  0  0  0  0  0  0  0
  101.1700  128.2890  121.0460 C   0  0  0  0  0  0  0  0  0  0  0  0
   99.9870  124.9860  120.3230 C   0  0  0  0  0  0  0  0  0  0  0  0
   98.3340  126.7290  120.5770 C   0  0  0  0  0  0  0  0  0  0  0  0
   99.0560  124.2330  119.5210 C   0  0  0  0  0  0  0  0  0  0  0  0
   97.4180  126.0130  119.7980 C   0  0  0  0  0  0  0  0  0  0  0  0
   99.4350  121.2900  112.7520 C   0  0  0  0  0  0  0  0  0  0  0  0
   93.7660  120.6510  116.3870 C   0  0  0  0  0  0  0  0  0  0  0  0
   93.9140  121.3030  117.5830 C   0  0  0  0  0  0  0  0  0  0  0  0
   98.6240  120.1800  112.9910 C   0  0  0  0  0  0  0  0  0  0  0  0
   99.1690  122.4740  113.5100 C   0  0  0  0  0  0  0  0  0  0  0  0
  100.5530  121.2130  111.7130 C   0  0  0  0  0  0  0  0  0  0  0  0
  101.9850  129.2000  122.0320 C   0  0  0  0  0  0  0  0  0  0  0  0
   92.8260  121.2730  118.4860 F   0  0  0  0  0  0  0  0  0  0  0  0
  1 10  4  0  0  0  0
  2 12  1  0  0  0  0
  1  3  4  0  0  0  0
  3 11  4  0  0  0  0
  4 26  4  0  0  0  0
  1  5  1  0  0  0  0
  5 13  4  0  0  0  0
  5 14  4  0  0  0  0
  6 26  4  0  0  0  0
  2  7  1  0  0  0  0
  3  7  1  0  0  0  0
  8 16  4  0  0  0  0
  8 17  4  0  0  0  0
  8  9  1  0  0  0  0
  9 15  1  0  0  0  0
 13 23  4  0  0  0  0
 14 24  4  0  0  0  0
 15 26  1  0  0  0  0
 16 18  4  0  0  0  0
 17 19  4  0  0  0  0
 12 18  4  0  0  0  0
 12 19  4  0  0  0  0
 20 23  4  0  0  0  0
 20 24  4  0  0  0  0
 20 25  1  0  0  0  0
 10 21  4  0  0  0  0
 21 22  4  0  0  0  0
 11 22  4  0  0  0  0
 22 27  1  0  0  0  0
M  END
$$$$
