7KI9
  PyMOL3.1          3D                             0

 31 34  0  0  0  0  0  0  0  0999 V2000
   -8.6020   16.2340   11.4680 C   0  0  0  0  0  0  0  0  0  0  0  0
   -7.0930   15.9180   11.6180 C   0  0  0  0  0  0  0  0  0  0  0  0
   -6.7750   14.5370   11.0910 C   0  0  0  0  0  0  0  0  0  0  0  0
   -7.0010   14.3400    9.7880 N   0  0  0  0  0  0  0  0  0  0  0  0
   -6.7530   13.1560    9.2590 C   0  0  0  0  0  0  0  0  0  0  0  0
   -7.0260   12.9950    7.9490 N   0  0  0  0  0  0  0  0  0  0  0  0
   -6.2680   12.1110    9.9350 N   0  0  0  0  0  0  0  0  0  0  0  0
   -6.0340   12.2780   11.2380 C   0  0  0  0  0  0  0  0  0  0  0  0
   -5.5210   11.2270   11.9190 N   0  0  0  0  0  0  0  0  0  0  0  0
   -6.2940   13.5180   11.8630 C   0  0  0  0  0  0  0  0  0  0  0  0
   -6.0560   13.6680   13.2260 O   0  0  0  0  0  0  0  0  0  0  0  0
   -7.2770   13.3670   13.9670 C   0  0  0  0  0  0  0  0  0  0  0  0
   -7.1250   13.7090   15.4260 C   0  0  0  0  0  0  0  0  0  0  0  0
   -6.3790   15.0310   15.7880 C   0  0  0  0  0  0  0  0  0  0  0  0
   -7.7150   15.6580   15.7980 N   0  0  0  0  0  0  0  0  0  0  0  0
   -8.4080   14.3690   16.0290 C   0  0  0  0  0  0  0  0  0  0  0  0
   -7.9970   17.0040   15.9980 C   0  0  0  0  0  0  0  0  0  0  0  0
   -6.9300   17.8950   16.1710 C   0  0  0  0  0  0  0  0  0  0  0  0
   -7.1450   19.2580   16.3500 C   0  0  0  0  0  0  0  0  0  0  0  0
   -8.4330   19.7720   16.3630 C   0  0  0  0  0  0  0  0  0  0  0  0
   -9.5030   18.8940   16.1880 C   0  0  0  0  0  0  0  0  0  0  0  0
   -9.3100   17.5200   16.0080 C   0  0  0  0  0  0  0  0  0  0  0  0
  -10.3750   16.6120   15.8170 N   0  0  0  0  0  0  0  0  0  0  0  0
  -11.3310   16.4750   16.9180 C   0  0  0  0  0  0  0  0  0  0  0  0
  -12.3870   15.3780   16.7140 C   0  0  0  0  0  0  0  0  0  0  0  0
  -13.0180   15.4650   15.3170 C   0  0  0  0  0  0  0  0  0  0  0  0
  -11.9310   15.5170   14.2430 C   0  0  0  0  0  0  0  0  0  0  0  0
  -10.9920   16.6940   14.5160 C   0  0  0  0  0  0  0  0  0  0  0  0
  -13.8280   14.2310   15.0670 C   0  0  0  0  0  0  0  0  0  0  0  0
  -15.0460   14.2410   15.6910 O   0  0  0  0  0  0  0  0  0  0  0  0
  -13.4870   13.3030   14.3980 O   0  0  0  0  0  0  0  0  0  0  0  0
  1  2  1  0  0  0  0
  2  3  1  0  0  0  0
  3  4  1  0  0  0  0
  4  5  2  0  0  0  0
  5  6  1  0  0  0  0
  5  7  1  0  0  0  0
  7  8  2  0  0  0  0
  8  9  1  0  0  0  0
  3 10  2  0  0  0  0
  8 10  1  0  0  0  0
 10 11  1  0  0  0  0
 11 12  1  0  0  0  0
 12 13  1  0  0  0  0
 13 14  1  0  0  0  0
 14 15  1  0  0  0  0
 13 16  1  0  0  0  0
 15 16  1  0  0  0  0
 15 17  1  0  0  0  0
 17 18  1  0  0  0  0
 18 19  2  0  0  0  0
 19 20  1  0  0  0  0
 20 21  2  0  0  0  0
 17 22  2  0  0  0  0
 21 22  1  0  0  0  0
 22 23  1  0  0  0  0
 23 24  1  0  0  0  0
 24 25  1  0  0  0  0
 25 26  1  0  0  0  0
 26 27  1  0  0  0  0
 23 28  1  0  0  0  0
 27 28  1  0  0  0  0
 26 29  1  0  0  0  0
 29 30  1  0  0  0  0
 29 31  2  0  0  0  0
M  END
$$$$
