8WFL
  PyMOL3.1          3D                             0

 26 29  0  0  0  0  0  0  0  0999 V2000
   94.5690  109.0650  108.1930 Cl  0  0  0  0  0  0  0  0  0  0  0  0
  101.0680  106.0670  110.4020 O   0  0  0  0  0  0  0  0  0  0  0  0
   98.3310  105.0360  105.0070 N   0  0  0  0  0  0  0  0  0  0  0  0
  100.5620  106.6430  108.2950 N   0  0  0  0  0  0  0  0  0  0  0  0
  103.9140  106.7920  109.3450 N   0  0  0  0  0  0  0  0  0  0  0  0
  104.8240  104.8870  108.9370 N   0  0  0  0  0  0  0  0  0  0  0  0
  100.6160  105.3010  104.8370 C   0  0  0  0  0  0  0  0  0  0  0  0
  100.2470  104.4580  106.0180 C   0  0  0  0  0  0  0  0  0  0  0  0
  101.2180  105.5780  106.1740 C   0  0  0  0  0  0  0  0  0  0  0  0
   99.5420  105.2600  104.0530 C   0  0  0  0  0  0  0  0  0  0  0  0
   98.7330  104.2160  105.9100 C   0  0  0  0  0  0  0  0  0  0  0  0
  100.8140  106.8830  106.8700 C   0  0  0  0  0  0  0  0  0  0  0  0
   97.5260  104.5120  104.4070 C   0  0  0  0  0  0  0  0  0  0  0  0
   99.2290  106.8050  108.8170 C   0  0  0  0  0  0  0  0  0  0  0  0
  101.4990  106.2010  109.3220 C   0  0  0  0  0  0  0  0  0  0  0  0
   98.6000  108.1730  108.5570 C   0  0  0  0  0  0  0  0  0  0  0  0
  102.9800  105.9110  109.1770 C   0  0  0  0  0  0  0  0  0  0  0  0
   97.1130  108.1040  108.4840 C   0  0  0  0  0  0  0  0  0  0  0  0
   99.3340  109.4950  108.4230 C   0  0  0  0  0  0  0  0  0  0  0  0
  103.5360  104.7040  108.9430 C   0  0  0  0  0  0  0  0  0  0  0  0
   96.3270  109.3450  108.2660 C   0  0  0  0  0  0  0  0  0  0  0  0
   98.5560  110.7830  108.1870 C   0  0  0  0  0  0  0  0  0  0  0  0
  105.0770  106.1680  109.1860 C   0  0  0  0  0  0  0  0  0  0  0  0
   97.0350  110.6980  108.1100 C   0  0  0  0  0  0  0  0  0  0  0  0
  105.8500  103.8970  108.7060 C   0  0  0  0  0  0  0  0  0  0  0  0
   96.3160  111.8370  107.9080 F   0  0  0  0  0  0  0  0  0  0  0  0
  7  8  1  0  0  0  0
  7  9  1  0  0  0  0
  8  9  1  0  0  0  0
  3 10  1  0  0  0  0
  7 10  1  0  0  0  0
  3 11  1  0  0  0  0
  8 11  1  0  0  0  0
  4 12  1  0  0  0  0
  9 12  1  0  0  0  0
  3 13  1  0  0  0  0
  4 14  1  0  0  0  0
  2 15  2  0  0  0  0
  4 15  1  0  0  0  0
 14 16  1  0  0  0  0
  5 17  1  0  0  0  0
 15 17  1  0  0  0  0
 16 18  1  0  0  0  0
 16 19  2  0  0  0  0
  6 20  1  0  0  0  0
 17 20  2  0  0  0  0
  1 21  1  0  0  0  0
 18 21  2  0  0  0  0
 19 22  1  0  0  0  0
  5 23  2  0  0  0  0
  6 23  1  0  0  0  0
 21 24  1  0  0  0  0
 22 24  2  0  0  0  0
  6 25  1  0  0  0  0
 24 26  1  0  0  0  0
M  END
$$$$
