7ENS
  PyMOL3.1          3D                             0

 19 21  0  0  0  0  0  0  0  0999 V2000
   12.7590   50.5780   21.8250 C   0  0  0  0  0  0  0  0  0  0  0  0
   13.8870   50.7960   20.9390 N   0  0  0  0  0  0  0  0  0  0  0  0
   13.7880   50.6540   19.6290 C   0  0  0  0  0  0  0  0  0  0  0  0
   12.7110   50.3090   18.9350 N   0  0  0  0  0  0  0  0  0  0  0  0
   13.0350   50.2770   17.6100 C   0  0  0  0  0  0  0  0  0  0  0  0
   12.2650   49.9930   16.6990 O   0  0  0  0  0  0  0  0  0  0  0  0
   14.5050   50.6540   17.5010 C   0  0  0  0  0  0  0  0  0  0  0  0
   14.8840   50.8760   18.8830 O   0  0  0  0  0  0  0  0  0  0  0  0
   15.3350   49.5230   16.8640 C   0  0  0  0  0  0  0  0  0  0  0  0
   15.2410   48.2350   17.6760 C   0  0  0  0  0  0  0  0  0  0  0  0
   16.7720   49.9530   16.6800 C   0  0  0  0  0  0  0  0  0  0  0  0
   17.6540   50.3430   17.6450 C   0  0  0  0  0  0  0  0  0  0  0  0
   18.8620   50.6560   17.0830 N   0  0  0  0  0  0  0  0  0  0  0  0
   18.7850   50.4710   15.7250 C   0  0  0  0  0  0  0  0  0  0  0  0
   19.7410   50.6530   14.7330 C   0  0  0  0  0  0  0  0  0  0  0  0
   19.3830   50.3850   13.4200 C   0  0  0  0  0  0  0  0  0  0  0  0
   18.1030   49.9470   13.1090 C   0  0  0  0  0  0  0  0  0  0  0  0
   17.1510   49.7670   14.1040 C   0  0  0  0  0  0  0  0  0  0  0  0
   17.4830   50.0280   15.4300 C   0  0  0  0  0  0  0  0  0  0  0  0
  1  2  1  0  0  0  0
  2  3  1  0  0  0  0
  3  4  2  0  0  0  0
  4  5  1  0  0  0  0
  5  6  2  0  0  0  0
  5  7  1  0  0  0  0
  3  8  1  0  0  0  0
  7  8  1  0  0  0  0
  7  9  1  0  0  0  0
  9 10  1  0  0  0  0
  9 11  1  0  0  0  0
 11 12  2  0  0  0  0
 12 13  1  0  0  0  0
 13 14  1  0  0  0  0
 14 15  1  0  0  0  0
 15 16  2  0  0  0  0
 16 17  1  0  0  0  0
 17 18  2  0  0  0  0
 11 19  1  0  0  0  0
 14 19  2  0  0  0  0
 18 19  1  0  0  0  0
M  END
$$$$
