9C1P
  PyMOL3.1          3D                             0

 48 54  0  0  0  0  0  0  0  0999 V2000
  232.0980  208.2000  198.9790 C   0  0  0  0  0  0  0  0  0  0  0  0
  230.8650  208.9320  198.7220 N   0  0  0  0  0  0  0  0  0  0  0  0
  229.6800  208.1450  199.0800 C   0  0  0  0  0  0  0  0  0  0  0  0
  228.3580  208.7270  198.6150 C   0  0  0  0  0  0  0  0  0  0  0  0
  228.0990  210.1600  199.0640 C   0  0  0  0  0  0  0  0  0  0  0  0
  229.1690  211.1870  198.6980 C   0  0  0  0  0  0  0  0  0  0  0  0
  229.9740  210.7890  197.4760 C   0  0  0  0  0  0  0  0  0  0  0  0
  230.8100  209.6640  197.5190 C   0  0  0  0  0  0  0  0  0  0  0  0
  231.5520  209.2950  196.4020 C   0  0  0  0  0  0  0  0  0  0  0  0
  231.4650  210.0460  195.2420 C   0  0  0  0  0  0  0  0  0  0  0  0
  230.6500  211.1530  195.1900 C   0  0  0  0  0  0  0  0  0  0  0  0
  229.9100  211.5240  196.2960 C   0  0  0  0  0  0  0  0  0  0  0  0
  230.0530  211.4040  199.8540 N   0  0  0  0  0  0  0  0  0  0  0  0
  229.7960  212.6560  200.5730 C   0  0  0  0  0  0  0  0  0  0  0  0
  230.4110  212.5890  201.9540 C   0  0  0  0  0  0  0  0  0  0  0  0
  230.8640  213.9670  202.3680 C   0  0  0  0  0  0  0  0  0  0  0  0
  231.2140  214.9600  201.4900 N   0  0  0  0  0  0  0  0  0  0  0  0
  231.6720  216.3690  202.2710 S   0  0  0  0  0  0  0  0  0  0  0  0
  231.4330  215.7390  203.8540 C   0  0  0  0  0  0  0  0  0  0  0  0
  230.9890  214.4100  203.7470 C   0  0  0  0  0  0  0  0  0  0  0  0
  230.7300  213.6990  204.9190 C   0  0  0  0  0  0  0  0  0  0  0  0
  230.9100  214.3040  206.1530 C   0  0  0  0  0  0  0  0  0  0  0  0
  231.3470  215.6090  206.2390 C   0  0  0  0  0  0  0  0  0  0  0  0
  231.6120  216.3380  205.0920 C   0  0  0  0  0  0  0  0  0  0  0  0
  211.2090  237.9290  199.5820 C   0  0  0  0  0  0  0  0  0  0  0  0
  212.4840  237.2490  199.3990 N   0  0  0  0  0  0  0  0  0  0  0  0
  213.6180  238.1300  199.6970 C   0  0  0  0  0  0  0  0  0  0  0  0
  214.7530  237.4870  200.4730 C   0  0  0  0  0  0  0  0  0  0  0  0
  215.2970  236.2030  199.8590 C   0  0  0  0  0  0  0  0  0  0  0  0
  214.2810  235.0910  199.6140 C   0  0  0  0  0  0  0  0  0  0  0  0
  213.4680  235.3190  198.3550 C   0  0  0  0  0  0  0  0  0  0  0  0
  212.5870  236.4060  198.2750 C   0  0  0  0  0  0  0  0  0  0  0  0
  211.8410  236.6260  197.1210 C   0  0  0  0  0  0  0  0  0  0  0  0
  211.9760  235.7660  196.0440 C   0  0  0  0  0  0  0  0  0  0  0  0
  212.8410  234.6980  196.1100 C   0  0  0  0  0  0  0  0  0  0  0  0
  213.5840  234.4750  197.2530 C   0  0  0  0  0  0  0  0  0  0  0  0
  213.4280  234.9500  200.8060 N   0  0  0  0  0  0  0  0  0  0  0  0
  212.7440  233.6570  200.8980 C   0  0  0  0  0  0  0  0  0  0  0  0
  213.6800  232.6150  201.4730 C   0  0  0  0  0  0  0  0  0  0  0  0
  213.0080  231.2640  201.4300 C   0  0  0  0  0  0  0  0  0  0  0  0
  212.5410  230.6030  202.5360 N   0  0  0  0  0  0  0  0  0  0  0  0
  211.8450  229.1280  202.1500 S   0  0  0  0  0  0  0  0  0  0  0  0
  212.1230  229.2780  200.4590 C   0  0  0  0  0  0  0  0  0  0  0  0
  212.7680  230.5020  200.2140 C   0  0  0  0  0  0  0  0  0  0  0  0
  213.0910  230.8310  198.8980 C   0  0  0  0  0  0  0  0  0  0  0  0
  212.7760  229.9610  197.8660 C   0  0  0  0  0  0  0  0  0  0  0  0
  212.1430  228.7640  198.1240 C   0  0  0  0  0  0  0  0  0  0  0  0
  211.8100  228.4110  199.4210 C   0  0  0  0  0  0  0  0  0  0  0  0
  1  2  1  0  0  0  0
  2  3  1  0  0  0  0
  3  4  1  0  0  0  0
  4  5  1  0  0  0  0
  5  6  1  0  0  0  0
  6  7  1  0  0  0  0
  2  8  1  0  0  0  0
  7  8  1  0  0  0  0
  8  9  2  0  0  0  0
  9 10  1  0  0  0  0
 10 11  2  0  0  0  0
  7 12  2  0  0  0  0
 11 12  1  0  0  0  0
  6 13  1  0  0  0  0
 13 14  1  0  0  0  0
 14 15  1  0  0  0  0
 15 16  1  0  0  0  0
 16 17  2  0  0  0  0
 17 18  1  0  0  0  0
 18 19  1  0  0  0  0
 16 20  1  0  0  0  0
 19 20  2  0  0  0  0
 20 21  1  0  0  0  0
 21 22  2  0  0  0  0
 22 23  1  0  0  0  0
 19 24  1  0  0  0  0
 23 24  2  0  0  0  0
 25 26  1  0  0  0  0
 26 27  1  0  0  0  0
 27 28  1  0  0  0  0
 28 29  1  0  0  0  0
 29 30  1  0  0  0  0
 30 31  1  0  0  0  0
 26 32  1  0  0  0  0
 31 32  1  0  0  0  0
 32 33  2  0  0  0  0
 33 34  1  0  0  0  0
 34 35  2  0  0  0  0
 31 36  2  0  0  0  0
 35 36  1  0  0  0  0
 30 37  1  0  0  0  0
 37 38  1  0  0  0  0
 38 39  1  0  0  0  0
 39 40  1  0  0  0  0
 40 41  2  0  0  0  0
 41 42  1  0  0  0  0
 42 43  1  0  0  0  0
 40 44  1  0  0  0  0
 43 44  2  0  0  0  0
 44 45  1  0  0  0  0
 45 46  2  0  0  0  0
 46 47  1  0  0  0  0
 43 48  1  0  0  0  0
 47 48  2  0  0  0  0
M  END
$$$$
