9C1P
  PyMOL3.1          3D                             0

 24 27  0  0  0  0  0  0  0  0999 V2000
  232.0980  208.2000  198.9790 C   0  0  0  0  0  0  0  0  0  0  0  0
  230.8650  208.9320  198.7220 N   0  0  0  0  0  0  0  0  0  0  0  0
  229.6800  208.1450  199.0800 C   0  0  0  0  0  0  0  0  0  0  0  0
  228.3580  208.7270  198.6150 C   0  0  0  0  0  0  0  0  0  0  0  0
  228.0990  210.1600  199.0640 C   0  0  0  0  0  0  0  0  0  0  0  0
  229.1690  211.1870  198.6980 C   0  0  0  0  0  0  0  0  0  0  0  0
  229.9740  210.7890  197.4760 C   0  0  0  0  0  0  0  0  0  0  0  0
  230.8100  209.6640  197.5190 C   0  0  0  0  0  0  0  0  0  0  0  0
  231.5520  209.2950  196.4020 C   0  0  0  0  0  0  0  0  0  0  0  0
  231.4650  210.0460  195.2420 C   0  0  0  0  0  0  0  0  0  0  0  0
  230.6500  211.1530  195.1900 C   0  0  0  0  0  0  0  0  0  0  0  0
  229.9100  211.5240  196.2960 C   0  0  0  0  0  0  0  0  0  0  0  0
  230.0530  211.4040  199.8540 N   0  0  0  0  0  0  0  0  0  0  0  0
  229.7960  212.6560  200.5730 C   0  0  0  0  0  0  0  0  0  0  0  0
  230.4110  212.5890  201.9540 C   0  0  0  0  0  0  0  0  0  0  0  0
  230.8640  213.9670  202.3680 C   0  0  0  0  0  0  0  0  0  0  0  0
  231.2140  214.9600  201.4900 N   0  0  0  0  0  0  0  0  0  0  0  0
  231.6720  216.3690  202.2710 S   0  0  0  0  0  0  0  0  0  0  0  0
  231.4330  215.7390  203.8540 C   0  0  0  0  0  0  0  0  0  0  0  0
  230.9890  214.4100  203.7470 C   0  0  0  0  0  0  0  0  0  0  0  0
  230.7300  213.6990  204.9190 C   0  0  0  0  0  0  0  0  0  0  0  0
  230.9100  214.3040  206.1530 C   0  0  0  0  0  0  0  0  0  0  0  0
  231.3470  215.6090  206.2390 C   0  0  0  0  0  0  0  0  0  0  0  0
  231.6120  216.3380  205.0920 C   0  0  0  0  0  0  0  0  0  0  0  0
  1  2  1  0  0  0  0
  2  3  1  0  0  0  0
  3  4  1  0  0  0  0
  4  5  1  0  0  0  0
  5  6  1  0  0  0  0
  6  7  1  0  0  0  0
  2  8  1  0  0  0  0
  7  8  1  0  0  0  0
  8  9  2  0  0  0  0
  9 10  1  0  0  0  0
 10 11  2  0  0  0  0
  7 12  2  0  0  0  0
 11 12  1  0  0  0  0
  6 13  1  0  0  0  0
 13 14  1  0  0  0  0
 14 15  1  0  0  0  0
 15 16  1  0  0  0  0
 16 17  2  0  0  0  0
 17 18  1  0  0  0  0
 18 19  1  0  0  0  0
 16 20  1  0  0  0  0
 19 20  2  0  0  0  0
 20 21  1  0  0  0  0
 21 22  2  0  0  0  0
 22 23  1  0  0  0  0
 19 24  1  0  0  0  0
 23 24  2  0  0  0  0
M  END
$$$$
