6ZFZ
  PyMOL3.1          3D                             0

 24 26  0  0  0  0  0  0  0  0999 V2000
   23.1800   13.7720   -1.5200 C   0  0  0  0  0  0  0  0  0  0  0  0
   21.2010   19.9890   -4.8670 N   0  0  0  0  0  0  0  0  0  0  0  0
   21.6110   22.9460  -10.0590 O   0  0  0  0  0  0  0  0  0  0  0  0
   21.7210   13.8430   -1.9970 C   0  0  0  0  0  0  0  0  0  0  0  0
   22.8780   23.5340   -8.1740 N   0  0  0  0  0  0  0  0  0  0  0  0
   21.4240   14.9230   -3.0490 C   0  0  0  0  0  0  0  0  0  0  0  0
   21.0540   16.2980   -2.4440 C   0  0  0  0  0  0  0  0  0  0  0  0
   20.6420   17.4320   -3.4210 C   0  0  0  0  0  0  0  0  0  0  0  0
   21.5630   17.5270   -4.6630 C   0  0  0  0  0  0  0  0  0  0  0  0
   21.1820   18.6450   -5.6470 C   0  0  0  0  0  0  0  0  0  0  0  0
   20.2340   19.9930   -3.6380 C   0  0  0  0  0  0  0  0  0  0  0  0
   20.5700   18.8080   -2.6980 C   0  0  0  0  0  0  0  0  0  0  0  0
   20.8990   21.1940   -5.7870 C   0  0  0  0  0  0  0  0  0  0  0  0
   22.0610   21.5640   -6.7250 C   0  0  0  0  0  0  0  0  0  0  0  0
   21.8150   22.9740   -7.2930 C   0  0  0  0  0  0  0  0  0  0  0  0
   22.6170   23.4510   -9.5360 C   0  0  0  0  0  0  0  0  0  0  0  0
   23.6920   24.0640  -10.4680 C   0  0  0  0  0  0  0  0  0  0  0  0
   25.1240   24.1480   -9.8860 C   0  0  0  0  0  0  0  0  0  0  0  0
   24.0500   24.1280   -7.5670 C   0  0  0  0  0  0  0  0  0  0  0  0
   25.1660   24.4480   -8.3920 C   0  0  0  0  0  0  0  0  0  0  0  0
   24.1600   24.4330   -6.1850 C   0  0  0  0  0  0  0  0  0  0  0  0
   25.3100   25.0010   -5.6430 C   0  0  0  0  0  0  0  0  0  0  0  0
   26.3930   25.2980   -6.4680 C   0  0  0  0  0  0  0  0  0  0  0  0
   26.3200   25.0180   -7.8310 C   0  0  0  0  0  0  0  0  0  0  0  0
  1  4  1  0  0  0  0
  4  6  1  0  0  0  0
  6  7  1  0  0  0  0
  7  8  1  0  0  0  0
  8  9  1  0  0  0  0
  2 10  1  0  0  0  0
  9 10  1  0  0  0  0
  2 11  1  0  0  0  0
  8 12  1  0  0  0  0
 11 12  1  0  0  0  0
  2 13  1  0  0  0  0
 13 14  1  0  0  0  0
  5 15  1  0  0  0  0
 14 15  1  0  0  0  0
  3 16  2  0  0  0  0
  5 16  1  0  0  0  0
 16 17  1  0  0  0  0
 17 18  1  0  0  0  0
  5 19  1  0  0  0  0
 18 20  1  0  0  0  0
 19 20  1  0  0  0  0
 19 21  2  0  0  0  0
 21 22  1  0  0  0  0
 22 23  2  0  0  0  0
 20 24  2  0  0  0  0
 23 24  1  0  0  0  0
M  END
$$$$
