8TZC
  PyMOL3.1          3D                             0

 28 32  0  0  0  0  0  0  0  0999 V2000
  179.9830  179.7310  139.8550 C   0  0  0  0  0  0  0  0  0  0  0  0
  181.9940  178.9240  142.7350 N   0  0  0  0  0  0  0  0  0  0  0  0
  179.5770  179.6900  142.1060 O   0  0  0  0  0  0  0  0  0  0  0  0
  180.1500  178.9940  141.1330 C   0  0  0  0  0  0  0  0  0  0  0  0
  185.9360  178.5210  143.2560 N   0  0  0  0  0  0  0  0  0  0  0  0
  190.2060  176.9860  145.5420 O   0  0  0  0  0  0  0  0  0  0  0  0
  181.5840  178.7180  141.3860 C   0  0  0  0  0  0  0  0  0  0  0  0
  184.0970  178.6940  141.9630 N   0  0  0  0  0  0  0  0  0  0  0  0
  181.0790  179.2520  143.7860 C   0  0  0  0  0  0  0  0  0  0  0  0
  184.9020  178.9240  146.5430 N   0  0  0  0  0  0  0  0  0  0  0  0
  179.6920  179.0890  143.2870 C   0  0  0  0  0  0  0  0  0  0  0  0
  185.6040  178.7960  147.6280 N   0  0  0  0  0  0  0  0  0  0  0  0
  178.6280  179.6380  144.1870 C   0  0  0  0  0  0  0  0  0  0  0  0
  183.3740  178.7830  142.9550 C   0  0  0  0  0  0  0  0  0  0  0  0
  183.8050  178.7560  144.1760 C   0  0  0  0  0  0  0  0  0  0  0  0
  185.1310  178.6170  144.3520 C   0  0  0  0  0  0  0  0  0  0  0  0
  185.3430  178.5660  142.0740 C   0  0  0  0  0  0  0  0  0  0  0  0
  185.6400  178.5850  145.7470 C   0  0  0  0  0  0  0  0  0  0  0  0
  186.8930  178.3240  147.3580 C   0  0  0  0  0  0  0  0  0  0  0  0
  187.9600  178.0310  148.0820 C   0  0  0  0  0  0  0  0  0  0  0  0
  189.0140  177.6020  147.4480 C   0  0  0  0  0  0  0  0  0  0  0  0
  189.0240  177.4600  146.1250 C   0  0  0  0  0  0  0  0  0  0  0  0
  190.5080  177.2750  144.2560 C   0  0  0  0  0  0  0  0  0  0  0  0
  191.0110  178.6590  143.9390 C   0  0  0  0  0  0  0  0  0  0  0  0
  190.0660  176.4040  143.1150 C   0  0  0  0  0  0  0  0  0  0  0  0
  191.3360  176.1050  143.8380 C   0  0  0  0  0  0  0  0  0  0  0  0
  187.9300  177.7580  145.4300 C   0  0  0  0  0  0  0  0  0  0  0  0
  186.8620  178.1910  146.0060 C   0  0  0  0  0  0  0  0  0  0  0  0
  1  4  1  0  0  0  0
  3  4  1  0  0  0  0
  2  7  1  0  0  0  0
  4  7  1  0  0  0  0
  2  9  1  0  0  0  0
  3 11  1  0  0  0  0
  9 11  1  0  0  0  0
 10 12  1  0  0  0  0
 11 13  1  0  0  0  0
  2 14  1  0  0  0  0
  8 14  2  0  0  0  0
 14 15  1  0  0  0  0
  5 16  1  0  0  0  0
 15 16  2  0  0  0  0
  5 17  2  0  0  0  0
  8 17  1  0  0  0  0
 10 18  2  0  0  0  0
 16 18  1  0  0  0  0
 12 19  1  0  0  0  0
 19 20  1  0  0  0  0
 20 21  2  0  0  0  0
  6 22  1  0  0  0  0
 21 22  1  0  0  0  0
  6 23  1  0  0  0  0
 23 24  1  0  0  0  0
 23 25  1  0  0  0  0
 23 26  1  0  0  0  0
 25 26  1  0  0  0  0
 22 27  2  0  0  0  0
 18 28  1  0  0  0  0
 19 28  2  0  0  0  0
 27 28  1  0  0  0  0
M  END
$$$$
