7XJ0
  PyMOL3.1          3D                             0

 33 35  0  0  0  0  0  0  0  0999 V2000
  170.9820  188.1040  148.7350 S   0  0  0  0  0  0  0  0  0  0  0  0
  165.8890  188.1980  150.4340 O   0  0  0  0  0  0  0  0  0  0  0  0
  167.1180  189.2720  145.7420 O   0  0  0  0  0  0  0  0  0  0  0  0
  168.2600  187.8650  149.2290 O   0  0  0  0  0  0  0  0  0  0  0  0
  175.8790  185.6910  149.3640 N   0  0  0  0  0  0  0  0  0  0  0  0
  171.0890  189.9040  147.4250 N   0  0  0  0  0  0  0  0  0  0  0  0
  168.8690  189.3250  147.7880 N   0  0  0  0  0  0  0  0  0  0  0  0
  173.6380  184.8580  153.1080 N   0  0  0  0  0  0  0  0  0  0  0  0
  164.2520  188.5740  148.8210 N   0  0  0  0  0  0  0  0  0  0  0  0
  164.9130  189.1220  146.4740 N   0  0  0  0  0  0  0  0  0  0  0  0
  174.5130  184.1080  150.7510 C   0  0  0  0  0  0  0  0  0  0  0  0
  174.5860  185.3760  149.9550 C   0  0  0  0  0  0  0  0  0  0  0  0
  173.4900  187.4720  149.0260 C   0  0  0  0  0  0  0  0  0  0  0  0
  173.3390  186.2280  149.7860 C   0  0  0  0  0  0  0  0  0  0  0  0
  175.9070  183.5070  150.8430 C   0  0  0  0  0  0  0  0  0  0  0  0
  173.5740  183.1940  149.9550 C   0  0  0  0  0  0  0  0  0  0  0  0
  172.3860  188.3670  148.5980 C   0  0  0  0  0  0  0  0  0  0  0  0
  174.7770  187.7150  148.4030 C   0  0  0  0  0  0  0  0  0  0  0  0
  172.4810  189.4900  147.7360 C   0  0  0  0  0  0  0  0  0  0  0  0
  174.0080  184.5150  152.1200 C   0  0  0  0  0  0  0  0  0  0  0  0
  175.9950  186.8870  148.5900 C   0  0  0  0  0  0  0  0  0  0  0  0
  170.2210  189.1300  148.0130 C   0  0  0  0  0  0  0  0  0  0  0  0
  173.5990  190.3010  147.1810 C   0  0  0  0  0  0  0  0  0  0  0  0
  167.9390  188.5770  148.4700 C   0  0  0  0  0  0  0  0  0  0  0  0
  166.5480  188.7250  148.1260 C   0  0  0  0  0  0  0  0  0  0  0  0
  165.5710  188.4660  149.1520 C   0  0  0  0  0  0  0  0  0  0  0  0
  166.2340  189.0630  146.7470 C   0  0  0  0  0  0  0  0  0  0  0  0
  163.9210  188.9080  147.4740 C   0  0  0  0  0  0  0  0  0  0  0  0
  164.9170  188.3570  151.3590 C   0  0  0  0  0  0  0  0  0  0  0  0
  166.6720  189.4300  144.5000 C   0  0  0  0  0  0  0  0  0  0  0  0
  173.3870  191.5420  146.9070 F   0  0  0  0  0  0  0  0  0  0  0  0
  173.7300  190.0510  145.9350 F   0  0  0  0  0  0  0  0  0  0  0  0
  174.6850  190.3020  147.8900 F   0  0  0  0  0  0  0  0  0  0  0  0
  5 12  1  0  0  0  0
 11 12  1  0  0  0  0
 12 14  2  0  0  0  0
 13 14  1  0  0  0  0
 11 15  1  0  0  0  0
 11 16  1  0  0  0  0
  1 17  1  0  0  0  0
 13 17  1  0  0  0  0
 13 18  2  0  0  0  0
  6 19  1  0  0  0  0
 17 19  2  0  0  0  0
  8 20  3  0  0  0  0
 11 20  1  0  0  0  0
  5 21  2  0  0  0  0
 18 21  1  0  0  0  0
  1 22  1  0  0  0  0
  6 22  2  0  0  0  0
  7 22  1  0  0  0  0
 19 23  1  0  0  0  0
  4 24  2  0  0  0  0
  7 24  1  0  0  0  0
 24 25  1  0  0  0  0
  2 26  1  0  0  0  0
  9 26  2  0  0  0  0
 25 26  1  0  0  0  0
  3 27  1  0  0  0  0
 10 27  1  0  0  0  0
 25 27  2  0  0  0  0
  9 28  1  0  0  0  0
 10 28  2  0  0  0  0
  2 29  1  0  0  0  0
  3 30  1  0  0  0  0
 23 31  1  0  0  0  0
 23 32  1  0  0  0  0
 23 33  1  0  0  0  0
M  END
$$$$
