7XJ0
  PyMOL3.1          3D                             0

 33 35  0  0  0  0  0  0  0  0999 V2000
  188.0190  161.7690  148.2200 S   0  0  0  0  0  0  0  0  0  0  0  0
  188.1330  166.7390  150.6400 O   0  0  0  0  0  0  0  0  0  0  0  0
  189.2090  166.1200  145.7990 O   0  0  0  0  0  0  0  0  0  0  0  0
  187.9610  164.4130  149.2950 O   0  0  0  0  0  0  0  0  0  0  0  0
  185.7810  156.8700  149.6310 N   0  0  0  0  0  0  0  0  0  0  0  0
  190.2280  161.6250  147.3040 N   0  0  0  0  0  0  0  0  0  0  0  0
  189.2820  163.9970  147.4760 N   0  0  0  0  0  0  0  0  0  0  0  0
  184.9940  159.4310  153.2560 N   0  0  0  0  0  0  0  0  0  0  0  0
  188.5060  168.7230  149.2210 N   0  0  0  0  0  0  0  0  0  0  0  0
  189.0620  168.4050  146.7230 N   0  0  0  0  0  0  0  0  0  0  0  0
  184.2110  158.5450  150.8740 C   0  0  0  0  0  0  0  0  0  0  0  0
  185.4370  158.2660  150.0080 C   0  0  0  0  0  0  0  0  0  0  0  0
  187.5100  159.1500  148.6850 C   0  0  0  0  0  0  0  0  0  0  0  0
  186.3120  159.4230  149.5300 C   0  0  0  0  0  0  0  0  0  0  0  0
  183.4070  157.2590  151.0480 C   0  0  0  0  0  0  0  0  0  0  0  0
  183.3420  159.6020  150.1970 C   0  0  0  0  0  0  0  0  0  0  0  0
  188.3870  160.3040  148.2050 C   0  0  0  0  0  0  0  0  0  0  0  0
  187.8520  157.7470  148.3090 C   0  0  0  0  0  0  0  0  0  0  0  0
  189.7150  160.1850  147.6580 C   0  0  0  0  0  0  0  0  0  0  0  0
  184.6600  159.0540  152.2410 C   0  0  0  0  0  0  0  0  0  0  0  0
  186.9740  156.5940  148.7890 C   0  0  0  0  0  0  0  0  0  0  0  0
  189.2090  162.5560  147.6430 C   0  0  0  0  0  0  0  0  0  0  0  0
  190.4870  158.8840  147.4570 C   0  0  0  0  0  0  0  0  0  0  0  0
  188.5880  164.8720  148.4010 C   0  0  0  0  0  0  0  0  0  0  0  0
  188.6680  166.3870  148.2240 C   0  0  0  0  0  0  0  0  0  0  0  0
  188.4300  167.2830  149.3870 C   0  0  0  0  0  0  0  0  0  0  0  0
  188.9850  166.9640  146.8900 C   0  0  0  0  0  0  0  0  0  0  0  0
  188.8240  169.3070  147.8860 C   0  0  0  0  0  0  0  0  0  0  0  0
  188.2430  167.6490  151.6950 C   0  0  0  0  0  0  0  0  0  0  0  0
  189.4630  166.7980  144.6010 C   0  0  0  0  0  0  0  0  0  0  0  0
  189.8470  158.1110  146.5320 F   0  0  0  0  0  0  0  0  0  0  0  0
  190.5570  158.2100  148.6420 F   0  0  0  0  0  0  0  0  0  0  0  0
  191.7490  159.1670  147.0200 F   0  0  0  0  0  0  0  0  0  0  0  0
  9 26  4  0  0  0  0
  9 28  4  0  0  0  0
 11 15  1  0  0  0  0
 11 16  1  0  0  0  0
 11 20  1  0  0  0  0
  5 12  4  0  0  0  0
 11 12  1  0  0  0  0
 12 14  4  0  0  0  0
 13 14  4  0  0  0  0
  1 17  4  0  0  0  0
 13 17  1  0  0  0  0
 17 19  4  0  0  0  0
 13 18  4  0  0  0  0
 18 21  4  0  0  0  0
  6 19  4  0  0  0  0
 19 23  1  0  0  0  0
  8 20  3  0  0  0  0
  5 21  4  0  0  0  0
  1 22  4  0  0  0  0
  6 22  4  0  0  0  0
  7 22  1  0  0  0  0
 23 31  1  0  0  0  0
 23 32  1  0  0  0  0
 23 33  1  0  0  0  0
  4 24  2  0  0  0  0
  7 24  1  0  0  0  0
 24 25  1  0  0  0  0
 25 26  4  0  0  0  0
 25 27  4  0  0  0  0
  2 26  1  0  0  0  0
  3 27  1  0  0  0  0
 10 27  4  0  0  0  0
 10 28  4  0  0  0  0
  2 29  1  0  0  0  0
  3 30  1  0  0  0  0
M  END
$$$$
