8XJK
  PyMOL3.1          3D                             0

 29 30  0  0  0  0  0  0  0  0999 V2000
  105.1790  124.5280  117.4980 Cl  0  0  0  0  0  0  0  0  0  0  0  0
   94.9160  128.6260  124.6010 O   0  0  0  0  0  0  0  0  0  0  0  0
   95.9880  128.1740  125.0900 C   0  0  0  0  0  0  0  0  0  0  0  0
   96.0510  127.8790  126.3130 O   0  0  0  0  0  0  0  0  0  0  0  0
   97.2260  127.9860  124.1970 C   0  0  0  0  0  0  0  0  0  0  0  0
   98.2110  126.9340  124.7540 C   0  0  0  0  0  0  0  0  0  0  0  0
   97.8070  125.4930  124.3650 C   0  0  0  0  0  0  0  0  0  0  0  0
   99.0550  124.5740  124.4190 C   0  0  0  0  0  0  0  0  0  0  0  0
   99.0170  123.5580  123.5330 C   0  0  0  0  0  0  0  0  0  0  0  0
   97.7740  123.4530  122.6070 C   0  0  0  0  0  0  0  0  0  0  0  0
   97.2750  121.9780  122.5860 C   0  0  0  0  0  0  0  0  0  0  0  0
   96.1070  121.8760  123.1880 C   0  0  0  0  0  0  0  0  0  0  0  0
   95.3780  123.1350  123.1270 O   0  0  0  0  0  0  0  0  0  0  0  0
   95.2990  120.7320  122.3800 C   0  0  0  0  0  0  0  0  0  0  0  0
   96.1730  120.4280  121.0930 C   0  0  0  0  0  0  0  0  0  0  0  0
   97.0220  121.4540  120.9950 C   0  0  0  0  0  0  0  0  0  0  0  0
   98.3520  120.9810  120.3820 C   0  0  0  0  0  0  0  0  0  0  0  0
   98.4910  120.9100  119.0510 C   0  0  0  0  0  0  0  0  0  0  0  0
   99.8220  120.4370  118.4460 C   0  0  0  0  0  0  0  0  0  0  0  0
  100.8380  121.5890  118.4830 C   0  0  0  0  0  0  0  0  0  0  0  0
  100.3360  122.6380  117.6710 O   0  0  0  0  0  0  0  0  0  0  0  0
  101.1930  123.7680  117.5620 C   0  0  0  0  0  0  0  0  0  0  0  0
  100.6420  125.0370  117.4300 C   0  0  0  0  0  0  0  0  0  0  0  0
  101.4710  126.1470  117.3200 C   0  0  0  0  0  0  0  0  0  0  0  0
  102.8510  125.9880  117.3420 C   0  0  0  0  0  0  0  0  0  0  0  0
  103.4030  124.7210  117.4720 C   0  0  0  0  0  0  0  0  0  0  0  0
  102.5750  123.6090  117.5820 C   0  0  0  0  0  0  0  0  0  0  0  0
   99.6130  120.0460  117.1250 O   0  0  0  0  0  0  0  0  0  0  0  0
   95.3170  120.3650  119.9130 O   0  0  0  0  0  0  0  0  0  0  0  0
  2  3  2  0  0  0  0
  3  4  1  0  0  0  0
  3  5  1  0  0  0  0
  5  6  1  0  0  0  0
  6  7  1  0  0  0  0
  7  8  1  0  0  0  0
  8  9  2  0  0  0  0
  9 10  1  0  0  0  0
 10 11  1  0  0  0  0
 11 12  1  0  0  0  0
 12 13  1  0  0  0  0
 12 14  1  0  0  0  0
 14 15  1  0  0  0  0
 11 16  1  0  0  0  0
 15 16  1  0  0  0  0
 16 17  1  0  0  0  0
 17 18  2  0  0  0  0
 18 19  1  0  0  0  0
 19 20  1  0  0  0  0
 20 21  1  0  0  0  0
 21 22  1  0  0  0  0
 22 23  2  0  0  0  0
 23 24  1  0  0  0  0
 24 25  2  0  0  0  0
  1 26  1  0  0  0  0
 25 26  1  0  0  0  0
 22 27  1  0  0  0  0
 26 27  2  0  0  0  0
 19 28  1  0  0  0  0
 15 29  1  0  0  0  0
M  END
$$$$
