8X43
  PyMOL3.1          3D                             0

 38 41  0  0  0  0  0  0  0  0999 V2000
  127.1310  117.2850   98.3450 C   0  0  0  0  0  0  0  0  0  0  0  0
  123.0440  118.0950   99.3500 N   0  0  0  0  0  0  0  0  0  0  0  0
  122.5250  117.2630  101.4020 O   0  0  0  0  0  0  0  0  0  0  0  0
  125.8070  117.5700   98.6770 C   0  0  0  0  0  0  0  0  0  0  0  0
  121.1490  115.9610   99.0680 N   0  0  0  0  0  0  0  0  0  0  0  0
  124.8120  116.6090   98.5790 C   0  0  0  0  0  0  0  0  0  0  0  0
  125.1860  115.3740   98.1440 C   0  0  0  0  0  0  0  0  0  0  0  0
  126.4970  115.0680   97.8050 C   0  0  0  0  0  0  0  0  0  0  0  0
  127.4830  116.0150   97.9040 C   0  0  0  0  0  0  0  0  0  0  0  0
  123.4590  116.7990   98.8810 C   0  0  0  0  0  0  0  0  0  0  0  0
  122.5420  115.7450   98.7480 C   0  0  0  0  0  0  0  0  0  0  0  0
  122.9770  114.5110   98.3010 C   0  0  0  0  0  0  0  0  0  0  0  0
  124.2880  114.3320   98.0030 C   0  0  0  0  0  0  0  0  0  0  0  0
  126.4990  113.6230   97.3820 C   0  0  0  0  0  0  0  0  0  0  0  0
  125.0940  113.1520   97.5050 C   0  0  0  0  0  0  0  0  0  0  0  0
  122.5700  118.2150  100.7070 C   0  0  0  0  0  0  0  0  0  0  0  0
  122.1520  119.5680  101.2440 C   0  0  0  0  0  0  0  0  0  0  0  0
  123.0860  120.5800  101.2570 C   0  0  0  0  0  0  0  0  0  0  0  0
  122.7450  121.8220  101.7410 C   0  0  0  0  0  0  0  0  0  0  0  0
  121.4690  122.0410  102.2120 C   0  0  0  0  0  0  0  0  0  0  0  0
  120.5330  121.0270  102.2020 C   0  0  0  0  0  0  0  0  0  0  0  0
  120.8770  119.7820  101.7160 C   0  0  0  0  0  0  0  0  0  0  0  0
  121.1390  123.2690  102.6910 F   0  0  0  0  0  0  0  0  0  0  0  0
  127.7810  117.9460   98.4190 H   0  0  0  0  0  0  0  0  0  0  0  0
  125.5860  118.4250   98.9690 H   0  0  0  0  0  0  0  0  0  0  0  0
  128.3630  115.8140   97.6800 H   0  0  0  0  0  0  0  0  0  0  0  0
  122.3750  113.8090   98.2060 H   0  0  0  0  0  0  0  0  0  0  0  0
  126.8090  113.5420   96.4670 H   0  0  0  0  0  0  0  0  0  0  0  0
  127.0710  113.1090   97.9740 H   0  0  0  0  0  0  0  0  0  0  0  0
  125.0420  112.4250   98.1450 H   0  0  0  0  0  0  0  0  0  0  0  0
  124.7630  112.8650   96.6400 H   0  0  0  0  0  0  0  0  0  0  0  0
  123.0930  118.7840   98.8390 H   0  0  0  0  0  0  0  0  0  0  0  0
  123.9450  120.4250  100.9370 H   0  0  0  0  0  0  0  0  0  0  0  0
  123.3720  122.5100  101.7510 H   0  0  0  0  0  0  0  0  0  0  0  0
  119.6740  121.1810  102.5220 H   0  0  0  0  0  0  0  0  0  0  0  0
  120.2530  119.0940  101.7060 H   0  0  0  0  0  0  0  0  0  0  0  0
  120.6510  115.2960   99.2920 H   0  0  0  0  0  0  0  0  0  0  0  0
  120.8190  116.7530   99.0340 H   0  0  0  0  0  0  0  0  0  0  0  0
  1  4  2  0  0  0  0
  4  6  1  0  0  0  0
  6  7  1  0  0  0  0
  7  8  1  0  0  0  0
  1  9  1  0  0  0  0
  8  9  2  0  0  0  0
  2 10  1  0  0  0  0
  6 10  2  0  0  0  0
  5 11  1  0  0  0  0
 10 11  1  0  0  0  0
 11 12  2  0  0  0  0
  7 13  2  0  0  0  0
 12 13  1  0  0  0  0
  8 14  1  0  0  0  0
 13 15  1  0  0  0  0
 14 15  1  0  0  0  0
  2 16  1  0  0  0  0
  3 16  2  0  0  0  0
 16 17  1  0  0  0  0
 17 18  2  0  0  0  0
 18 19  1  0  0  0  0
 19 20  2  0  0  0  0
 20 21  1  0  0  0  0
 17 22  1  0  0  0  0
 21 22  2  0  0  0  0
 20 23  1  0  0  0  0
  1 24  1  0  0  0  0
  4 25  1  0  0  0  0
  9 26  1  0  0  0  0
 12 27  1  0  0  0  0
 14 28  1  0  0  0  0
 14 29  1  0  0  0  0
 15 30  1  0  0  0  0
 15 31  1  0  0  0  0
  2 32  1  0  0  0  0
 18 33  1  0  0  0  0
 19 34  1  0  0  0  0
 21 35  1  0  0  0  0
 22 36  1  0  0  0  0
  5 37  1  0  0  0  0
  5 38  1  0  0  0  0
M  END
$$$$
