8X43
  PyMOL3.1          3D                             0

 38 41  0  0  0  0  0  0  0  0999 V2000
  117.2880   96.0690   98.3510 C   0  0  0  0  0  0  0  0  0  0  0  0
  118.0990  100.1580   99.3510 N   0  0  0  0  0  0  0  0  0  0  0  0
  117.2680  100.6760  101.4030 O   0  0  0  0  0  0  0  0  0  0  0  0
  117.5740   97.3940   98.6810 C   0  0  0  0  0  0  0  0  0  0  0  0
  115.9640  102.0530   99.0650 N   0  0  0  0  0  0  0  0  0  0  0  0
  116.6120   98.3900   98.5820 C   0  0  0  0  0  0  0  0  0  0  0  0
  115.3780   98.0150   98.1480 C   0  0  0  0  0  0  0  0  0  0  0  0
  115.0730   96.7030   97.8120 C   0  0  0  0  0  0  0  0  0  0  0  0
  116.0190   95.7180   97.9120 C   0  0  0  0  0  0  0  0  0  0  0  0
  116.8030   99.7420   98.8820 C   0  0  0  0  0  0  0  0  0  0  0  0
  115.7500  100.6590   98.7460 C   0  0  0  0  0  0  0  0  0  0  0  0
  114.5150  100.2230   98.3020 C   0  0  0  0  0  0  0  0  0  0  0  0
  114.3350   98.9130   98.0050 C   0  0  0  0  0  0  0  0  0  0  0  0
  113.6260   96.7000   97.3880 C   0  0  0  0  0  0  0  0  0  0  0  0
  113.1560   98.1050   97.5100 C   0  0  0  0  0  0  0  0  0  0  0  0
  118.2190  100.6330  100.7080 C   0  0  0  0  0  0  0  0  0  0  0  0
  119.5730  101.0510  101.2420 C   0  0  0  0  0  0  0  0  0  0  0  0
  120.5860  100.1180  101.2530 C   0  0  0  0  0  0  0  0  0  0  0  0
  121.8280  100.4600  101.7370 C   0  0  0  0  0  0  0  0  0  0  0  0
  122.0460  101.7350  102.2100 C   0  0  0  0  0  0  0  0  0  0  0  0
  121.0310  102.6700  102.2020 C   0  0  0  0  0  0  0  0  0  0  0  0
  119.7860  102.3250  101.7170 C   0  0  0  0  0  0  0  0  0  0  0  0
  123.2750  102.0660  102.6880 F   0  0  0  0  0  0  0  0  0  0  0  0
  117.9500   95.4200   98.4270 H   0  0  0  0  0  0  0  0  0  0  0  0
  118.4290   97.6160   98.9740 H   0  0  0  0  0  0  0  0  0  0  0  0
  115.8180   94.8370   97.6900 H   0  0  0  0  0  0  0  0  0  0  0  0
  113.8130  100.8270   98.2050 H   0  0  0  0  0  0  0  0  0  0  0  0
  113.5470   96.3900   96.4730 H   0  0  0  0  0  0  0  0  0  0  0  0
  113.1120   96.1300   97.9810 H   0  0  0  0  0  0  0  0  0  0  0  0
  112.4280   98.1590   98.1490 H   0  0  0  0  0  0  0  0  0  0  0  0
  112.8700   98.4350   96.6440 H   0  0  0  0  0  0  0  0  0  0  0  0
  118.7890  100.1110   98.8380 H   0  0  0  0  0  0  0  0  0  0  0  0
  120.4300   99.2600  100.9330 H   0  0  0  0  0  0  0  0  0  0  0  0
  122.5170   99.8340  101.7440 H   0  0  0  0  0  0  0  0  0  0  0  0
  121.1850  103.5290  102.5230 H   0  0  0  0  0  0  0  0  0  0  0  0
  119.0970  102.9490  101.7090 H   0  0  0  0  0  0  0  0  0  0  0  0
  115.3010  102.5520   99.2880 H   0  0  0  0  0  0  0  0  0  0  0  0
  116.7580  102.3830   99.0300 H   0  0  0  0  0  0  0  0  0  0  0  0
  1  4  2  0  0  0  0
  4  6  1  0  0  0  0
  6  7  1  0  0  0  0
  7  8  1  0  0  0  0
  1  9  1  0  0  0  0
  8  9  2  0  0  0  0
  2 10  1  0  0  0  0
  6 10  2  0  0  0  0
  5 11  1  0  0  0  0
 10 11  1  0  0  0  0
 11 12  2  0  0  0  0
  7 13  2  0  0  0  0
 12 13  1  0  0  0  0
  8 14  1  0  0  0  0
 13 15  1  0  0  0  0
 14 15  1  0  0  0  0
  2 16  1  0  0  0  0
  3 16  2  0  0  0  0
 16 17  1  0  0  0  0
 17 18  2  0  0  0  0
 18 19  1  0  0  0  0
 19 20  2  0  0  0  0
 20 21  1  0  0  0  0
 17 22  1  0  0  0  0
 21 22  2  0  0  0  0
 20 23  1  0  0  0  0
  1 24  1  0  0  0  0
  4 25  1  0  0  0  0
  9 26  1  0  0  0  0
 12 27  1  0  0  0  0
 14 28  1  0  0  0  0
 14 29  1  0  0  0  0
 15 30  1  0  0  0  0
 15 31  1  0  0  0  0
  2 32  1  0  0  0  0
 18 33  1  0  0  0  0
 19 34  1  0  0  0  0
 21 35  1  0  0  0  0
 22 36  1  0  0  0  0
  5 37  1  0  0  0  0
  5 38  1  0  0  0  0
M  END
$$$$
