8W2L
  PyMOL3.1          3D                             0

 24 27  0  0  0  0  0  0  0  0999 V2000
  176.6770  185.1810  181.5270 Cl  0  0  0  0  0  0  0  0  0  0  0  0
  167.8390  187.2010  184.2210 N   0  0  0  0  0  0  0  0  0  0  0  0
  168.8230  187.4890  183.1740 C   0  0  0  0  0  0  0  0  0  0  0  0
  169.5420  186.2360  185.6800 C   0  0  0  0  0  0  0  0  0  0  0  0
  171.5900  185.2050  184.7370 C   0  0  0  0  0  0  0  0  0  0  0  0
  170.6090  186.3760  184.5990 C   0  0  0  0  0  0  0  0  0  0  0  0
  171.3890  187.6330  184.8460 N   0  3  0  0  0  0  0  0  0  0  0  0
  168.4280  187.2610  185.5600 C   0  0  0  0  0  0  0  0  0  0  0  0
  172.8620  185.2450  183.9250 C   0  0  0  0  0  0  0  0  0  0  0  0
  172.8480  184.9440  182.5750 C   0  0  0  0  0  0  0  0  0  0  0  0
  174.0110  184.9380  181.8310 C   0  0  0  0  0  0  0  0  0  0  0  0
  175.2010  185.2350  182.4470 C   0  0  0  0  0  0  0  0  0  0  0  0
  175.2520  185.5400  183.7850 C   0  0  0  0  0  0  0  0  0  0  0  0
  174.0800  185.5430  184.5180 C   0  0  0  0  0  0  0  0  0  0  0  0
  166.5090  187.5440  184.0770 C   0  0  0  0  0  0  0  0  0  0  0  0
  169.9470  186.4680  183.2290 C   0  0  0  0  0  0  0  0  0  0  0  0
  165.9120  188.0620  185.1600 N   0  0  0  0  0  0  0  0  0  0  0  0
  164.6100  188.3460  185.0420 C   0  0  0  0  0  0  0  0  0  0  0  0
  163.8070  188.1880  183.9880 N   0  0  0  0  0  0  0  0  0  0  0  0
  164.4340  187.6710  182.9250 C   0  0  0  0  0  0  0  0  0  0  0  0
  163.8720  187.4100  181.7090 N   0  0  0  0  0  0  0  0  0  0  0  0
  164.8440  186.8990  180.8870 C   0  0  0  0  0  0  0  0  0  0  0  0
  166.0270  186.8240  181.5460 C   0  0  0  0  0  0  0  0  0  0  0  0
  165.7930  187.3150  182.8670 C   0  0  0  0  0  0  0  0  0  0  0  0
  2  3  1  0  0  0  0
  4  6  1  0  0  0  0
  5  6  1  0  0  0  0
  6  7  1  0  0  0  0
  2  8  1  0  0  0  0
  4  8  1  0  0  0  0
  5  9  1  0  0  0  0
  9 10  1  0  0  0  0
 10 11  2  0  0  0  0
  1 12  1  0  0  0  0
 11 12  1  0  0  0  0
 12 13  2  0  0  0  0
  9 14  2  0  0  0  0
 13 14  1  0  0  0  0
  2 15  1  0  0  0  0
  3 16  1  0  0  0  0
  6 16  1  0  0  0  0
 15 17  1  0  0  0  0
 17 18  2  0  0  0  0
 18 19  1  0  0  0  0
 19 20  2  0  0  0  0
 20 21  1  0  0  0  0
 21 22  1  0  0  0  0
 22 23  2  0  0  0  0
 15 24  2  0  0  0  0
 20 24  1  0  0  0  0
 23 24  1  0  0  0  0
M  END
$$$$
