8W2L
  PyMOL3.1          3D                             0

 24 27  0  0  0  0  0  0  0  0999 V2000
  185.1570  143.3110  181.5200 Cl  0  0  0  0  0  0  0  0  0  0  0  0
  187.1680  152.1690  184.2270 N   0  0  0  0  0  0  0  0  0  0  0  0
  187.4860  151.1840  183.1900 C   0  0  0  0  0  0  0  0  0  0  0  0
  186.1910  150.4610  185.6730 C   0  0  0  0  0  0  0  0  0  0  0  0
  185.1990  148.4020  184.7210 C   0  0  0  0  0  0  0  0  0  0  0  0
  186.3640  149.3920  184.6000 C   0  0  0  0  0  0  0  0  0  0  0  0
  187.6240  148.6260  184.8740 N   0  3  0  0  0  0  0  0  0  0  0  0
  187.2050  151.5870  185.5700 C   0  0  0  0  0  0  0  0  0  0  0  0
  185.2500  147.1320  183.9070 C   0  0  0  0  0  0  0  0  0  0  0  0
  184.9510  147.1460  182.5570 C   0  0  0  0  0  0  0  0  0  0  0  0
  184.9390  145.9810  181.8150 C   0  0  0  0  0  0  0  0  0  0  0  0
  185.2290  144.7900  182.4350 C   0  0  0  0  0  0  0  0  0  0  0  0
  185.5320  144.7400  183.7730 C   0  0  0  0  0  0  0  0  0  0  0  0
  185.5410  145.9140  184.5030 C   0  0  0  0  0  0  0  0  0  0  0  0
  187.5140  153.4970  184.0780 C   0  0  0  0  0  0  0  0  0  0  0  0
  186.4760  150.0510  183.2290 C   0  0  0  0  0  0  0  0  0  0  0  0
  188.0380  154.0990  185.1560 N   0  0  0  0  0  0  0  0  0  0  0  0
  188.3290  155.3980  185.0290 C   0  0  0  0  0  0  0  0  0  0  0  0
  188.1730  156.1940  183.9700 N   0  0  0  0  0  0  0  0  0  0  0  0
  187.6500  155.5640  182.9120 C   0  0  0  0  0  0  0  0  0  0  0  0
  187.3880  156.1200  181.6940 N   0  0  0  0  0  0  0  0  0  0  0  0
  186.8690  155.1450  180.8800 C   0  0  0  0  0  0  0  0  0  0  0  0
  186.7890  153.9670  181.5480 C   0  0  0  0  0  0  0  0  0  0  0  0
  187.2870  154.2070  182.8650 C   0  0  0  0  0  0  0  0  0  0  0  0
  2  3  1  0  0  0  0
  4  6  1  0  0  0  0
  5  6  1  0  0  0  0
  6  7  1  0  0  0  0
  2  8  1  0  0  0  0
  4  8  1  0  0  0  0
  5  9  1  0  0  0  0
  9 10  1  0  0  0  0
 10 11  2  0  0  0  0
  1 12  1  0  0  0  0
 11 12  1  0  0  0  0
 12 13  2  0  0  0  0
  9 14  2  0  0  0  0
 13 14  1  0  0  0  0
  2 15  1  0  0  0  0
  3 16  1  0  0  0  0
  6 16  1  0  0  0  0
 15 17  1  0  0  0  0
 17 18  2  0  0  0  0
 18 19  1  0  0  0  0
 19 20  2  0  0  0  0
 20 21  1  0  0  0  0
 21 22  1  0  0  0  0
 22 23  2  0  0  0  0
 15 24  2  0  0  0  0
 20 24  1  0  0  0  0
 23 24  1  0  0  0  0
M  END
$$$$
