8TZ7
  PyMOL3.1          3D                             0

 42 43  0  0  0  0  0  0  0  0999 V2000
  143.6470  122.3950  144.3680 C   0  0  0  0  0  0  0  0  0  0  0  0
  142.9230  123.1520  143.2570 C   0  0  0  0  0  0  0  0  0  0  0  0
  142.8510  124.6150  143.5620 C   0  0  0  0  0  0  0  0  0  0  0  0
  141.5200  122.5620  142.9810 C   0  0  0  0  0  0  0  0  0  0  0  0
  140.6550  122.7260  143.7340 O   0  0  0  0  0  0  0  0  0  0  0  0
  141.2940  121.7930  141.7380 O   0  0  0  0  0  0  0  0  0  0  0  0
  139.8960  121.5840  141.4080 C   0  0  0  0  0  0  0  0  0  0  0  0
  139.7990  121.3600  139.8980 C   0  0  0  0  0  0  0  0  0  0  0  0
  140.5210  120.0430  139.5000 C   0  0  0  0  0  0  0  0  0  0  0  0
  140.9400  120.2910  137.9810 C   0  0  0  0  0  0  0  0  0  0  0  0
  141.0210  121.5710  137.8340 C   0  0  0  0  0  0  0  0  0  0  0  0
  140.4650  122.2880  139.2510 O   0  0  0  0  0  0  0  0  0  0  0  0
  142.3920  121.9590  137.6020 N   0  0  0  0  0  0  0  0  0  0  0  0
  143.2260  122.3540  138.7320 C   0  0  0  0  0  0  0  0  0  0  0  0
  144.6430  122.7600  138.5090 C   0  0  0  0  0  0  0  0  0  0  0  0
  145.2050  122.7630  137.1200 C   0  0  0  0  0  0  0  0  0  0  0  0
  144.3780  122.3740  135.9990 N   0  0  0  0  0  0  0  0  0  0  0  0
  142.9550  121.9660  136.2240 C   0  0  0  0  0  0  0  0  0  0  0  0
  142.2910  121.6520  135.3200 O   0  0  0  0  0  0  0  0  0  0  0  0
  146.5730  123.1560  136.9070 N   0  0  0  0  0  0  0  0  0  0  0  0
  147.3900  123.5430  138.0250 O   0  0  0  0  0  0  0  0  0  0  0  0
  139.9030  119.7660  137.0970 O   0  0  0  0  0  0  0  0  0  0  0  0
  139.6980  119.0140  139.5930 O   0  0  0  0  0  0  0  0  0  0  0  0
  144.6530  122.7220  144.4200 H   0  0  0  0  0  0  0  0  0  0  0  0
  143.6230  121.3520  144.1600 H   0  0  0  0  0  0  0  0  0  0  0  0
  143.1340  122.5950  145.3580 H   0  0  0  0  0  0  0  0  0  0  0  0
  143.5150  123.0290  142.3300 H   0  0  0  0  0  0  0  0  0  0  0  0
  142.2670  125.1210  142.7880 H   0  0  0  0  0  0  0  0  0  0  0  0
  143.8890  125.0440  143.5910 H   0  0  0  0  0  0  0  0  0  0  0  0
  142.3710  124.7570  144.5280 H   0  0  0  0  0  0  0  0  0  0  0  0
  139.3070  122.4600  141.6970 H   0  0  0  0  0  0  0  0  0  0  0  0
  139.5380  120.7260  141.9200 H   0  0  0  0  0  0  0  0  0  0  0  0
  138.7740  121.3420  139.5700 H   0  0  0  0  0  0  0  0  0  0  0  0
  141.4250  119.8910  140.1470 H   0  0  0  0  0  0  0  0  0  0  0  0
  141.9310  119.8200  137.7660 H   0  0  0  0  0  0  0  0  0  0  0  0
  140.3670  121.9010  136.9540 H   0  0  0  0  0  0  0  0  0  0  0  0
  142.8180  122.3490  139.7290 H   0  0  0  0  0  0  0  0  0  0  0  0
  145.2750  123.0570  139.3670 H   0  0  0  0  0  0  0  0  0  0  0  0
  146.9590  123.1610  135.9750 H   0  0  0  0  0  0  0  0  0  0  0  0
  147.6610  124.4040  137.9180 H   0  0  0  0  0  0  0  0  0  0  0  0
  140.2260  119.0450  136.6320 H   0  0  0  0  0  0  0  0  0  0  0  0
  140.1200  118.2210  139.2050 H   0  0  0  0  0  0  0  0  0  0  0  0
  1  2  1  0  0  0  0
  2  3  1  0  0  0  0
  2  4  1  0  0  0  0
  4  5  2  0  0  0  0
  4  6  1  0  0  0  0
  6  7  1  0  0  0  0
  7  8  1  0  0  0  0
  8  9  1  0  0  0  0
  9 10  1  0  0  0  0
 10 11  1  0  0  0  0
  8 12  1  0  0  0  0
 11 12  1  0  0  0  0
 11 13  1  0  0  0  0
 13 14  1  0  0  0  0
 14 15  2  0  0  0  0
 15 16  1  0  0  0  0
 16 17  2  0  0  0  0
 13 18  1  0  0  0  0
 17 18  1  0  0  0  0
 18 19  2  0  0  0  0
 16 20  1  0  0  0  0
 20 21  1  0  0  0  0
 10 22  1  0  0  0  0
  9 23  1  0  0  0  0
  1 24  1  0  0  0  0
  1 25  1  0  0  0  0
  1 26  1  0  0  0  0
  2 27  1  0  0  0  0
  3 28  1  0  0  0  0
  3 29  1  0  0  0  0
  3 30  1  0  0  0  0
  7 31  1  0  0  0  0
  7 32  1  0  0  0  0
  8 33  1  0  0  0  0
  9 34  1  0  0  0  0
 10 35  1  0  0  0  0
 11 36  1  0  0  0  0
 14 37  1  0  0  0  0
 15 38  1  0  0  0  0
 20 39  1  0  0  0  0
 21 40  1  0  0  0  0
 22 41  1  0  0  0  0
 23 42  1  0  0  0  0
M  END
$$$$
