9EXW
  PyMOL3.1          3D                             0

 64 72  0  0  0  0  0  0  0  0999 V2000
 -133.6200   -9.4450  156.4310 N   0  0  0  0  0  0  0  0  0  0  0  0
 -129.6650   -4.7050  158.4260 C   0  0  0  0  0  0  0  0  0  0  0  0
 -137.0360   -3.0300  152.9300 O   0  0  0  0  0  0  0  0  0  0  0  0
 -130.3240   -5.9900  158.0030 C   0  0  0  0  0  0  0  0  0  0  0  0
 -135.2640  -12.5710  155.4780 N   0  0  0  0  0  0  0  0  0  0  0  0
 -134.0270   -2.7840  154.9350 O   0  0  0  0  0  0  0  0  0  0  0  0
 -131.0880   -6.7120  158.9170 C   0  0  0  0  0  0  0  0  0  0  0  0
 -128.0320   -5.7590  155.7390 N   0  0  0  0  0  0  0  0  0  0  0  0
 -131.7090   -7.8970  158.5710 C   0  0  0  0  0  0  0  0  0  0  0  0
 -128.7000   -4.6590  153.9240 N   0  0  0  0  0  0  0  0  0  0  0  0
 -131.5940   -8.4140  157.2920 C   0  0  0  0  0  0  0  0  0  0  0  0
 -135.0930   -4.1400  152.7430 N   0  0  0  0  0  0  0  0  0  0  0  0
 -132.2700   -9.7010  156.8960 C   0  0  0  0  0  0  0  0  0  0  0  0
 -134.6010  -10.4080  156.2900 C   0  0  0  0  0  0  0  0  0  0  0  0
 -135.8820  -10.2020  156.7890 C   0  0  0  0  0  0  0  0  0  0  0  0
 -136.8410  -11.1850  156.6270 C   0  0  0  0  0  0  0  0  0  0  0  0
 -136.4880  -12.3440  155.9700 C   0  0  0  0  0  0  0  0  0  0  0  0
 -134.3450  -11.6130  155.6420 C   0  0  0  0  0  0  0  0  0  0  0  0
 -130.8390   -7.7070  156.3670 C   0  0  0  0  0  0  0  0  0  0  0  0
 -130.2030   -6.5100  156.7050 C   0  0  0  0  0  0  0  0  0  0  0  0
 -129.4180   -5.8040  155.6780 C   0  0  0  0  0  0  0  0  0  0  0  0
 -127.6620   -5.0690  154.6820 C   0  0  0  0  0  0  0  0  0  0  0  0
 -128.6210   -3.8790  152.6920 C   0  0  0  0  0  0  0  0  0  0  0  0
 -129.8510   -5.1380  154.5600 C   0  0  0  0  0  0  0  0  0  0  0  0
 -131.2140   -4.9000  154.0650 C   0  0  0  0  0  0  0  0  0  0  0  0
 -131.7150   -5.5980  152.9710 C   0  0  0  0  0  0  0  0  0  0  0  0
 -132.9990   -5.3640  152.5120 C   0  0  0  0  0  0  0  0  0  0  0  0
 -133.7960   -4.4180  153.1610 C   0  0  0  0  0  0  0  0  0  0  0  0
 -135.8970   -3.2350  153.3370 C   0  0  0  0  0  0  0  0  0  0  0  0
 -135.2360   -2.3020  154.3240 C   0  0  0  0  0  0  0  0  0  0  0  0
 -133.2900   -3.7240  154.2590 C   0  0  0  0  0  0  0  0  0  0  0  0
 -132.0130   -3.9610  154.7100 C   0  0  0  0  0  0  0  0  0  0  0  0
 -136.5370  -17.0170  167.9570 N   0  0  0  0  0  0  0  0  0  0  0  0
 -133.7370  -18.6900  173.6360 C   0  0  0  0  0  0  0  0  0  0  0  0
 -132.4010  -10.7940  168.6250 O   0  0  0  0  0  0  0  0  0  0  0  0
 -134.5420  -18.5420  172.3720 C   0  0  0  0  0  0  0  0  0  0  0  0
 -134.0970  -16.4400  165.3080 N   0  0  0  0  0  0  0  0  0  0  0  0
 -132.2530  -13.4620  171.0200 O   0  0  0  0  0  0  0  0  0  0  0  0
 -135.9020  -18.2560  172.4560 C   0  0  0  0  0  0  0  0  0  0  0  0
 -131.9990  -20.1850  171.3540 N   0  0  0  0  0  0  0  0  0  0  0  0
 -136.6840  -18.1090  171.3270 C   0  0  0  0  0  0  0  0  0  0  0  0
 -130.3750  -18.9280  170.4780 N   0  0  0  0  0  0  0  0  0  0  0  0
 -136.1390  -18.2440  170.0630 C   0  0  0  0  0  0  0  0  0  0  0  0
 -132.0840  -12.9890  168.2860 N   0  0  0  0  0  0  0  0  0  0  0  0
 -136.9910  -18.0860  168.8280 C   0  0  0  0  0  0  0  0  0  0  0  0
 -135.7300  -17.2580  166.8710 C   0  0  0  0  0  0  0  0  0  0  0  0
 -135.7100  -18.4980  166.2480 C   0  0  0  0  0  0  0  0  0  0  0  0
 -134.8820  -18.6960  165.1610 C   0  0  0  0  0  0  0  0  0  0  0  0
 -134.0980  -17.6450  164.7280 C   0  0  0  0  0  0  0  0  0  0  0  0
 -134.9020  -16.2630  166.3600 C   0  0  0  0  0  0  0  0  0  0  0  0
 -134.7820  -18.5290  169.9600 C   0  0  0  0  0  0  0  0  0  0  0  0
 -133.9820  -18.6850  171.0910 C   0  0  0  0  0  0  0  0  0  0  0  0
 -132.5460  -18.9790  170.9330 C   0  0  0  0  0  0  0  0  0  0  0  0
 -130.7140  -20.1040  171.0630 C   0  0  0  0  0  0  0  0  0  0  0  0
 -129.0420  -18.5230  170.0370 C   0  0  0  0  0  0  0  0  0  0  0  0
 -131.5710  -18.1880  170.3880 C   0  0  0  0  0  0  0  0  0  0  0  0
 -131.6980  -16.8400  169.8240 C   0  0  0  0  0  0  0  0  0  0  0  0
 -131.6150  -16.6360  168.4530 C   0  0  0  0  0  0  0  0  0  0  0  0
 -131.7400  -15.3670  167.9180 C   0  0  0  0  0  0  0  0  0  0  0  0
 -131.9560  -14.2860  168.7690 C   0  0  0  0  0  0  0  0  0  0  0  0
 -132.2890  -11.9240  169.0840 C   0  0  0  0  0  0  0  0  0  0  0  0
 -131.9310  -12.1510  170.5290 C   0  0  0  0  0  0  0  0  0  0  0  0
 -132.0420  -14.4950  170.1420 C   0  0  0  0  0  0  0  0  0  0  0  0
 -131.9200  -15.7600  170.6710 C   0  0  0  0  0  0  0  0  0  0  0  0
  2  4  1  0  0  0  0
  4  7  2  0  0  0  0
  7  9  1  0  0  0  0
  9 11  2  0  0  0  0
  1 13  1  0  0  0  0
 11 13  1  0  0  0  0
  1 14  1  0  0  0  0
 14 15  2  0  0  0  0
 15 16  1  0  0  0  0
  5 17  1  0  0  0  0
 16 17  2  0  0  0  0
  5 18  2  0  0  0  0
 14 18  1  0  0  0  0
 11 19  1  0  0  0  0
  4 20  1  0  0  0  0
 19 20  2  0  0  0  0
  8 21  1  0  0  0  0
 20 21  1  0  0  0  0
  8 22  2  0  0  0  0
 10 22  1  0  0  0  0
 10 23  1  0  0  0  0
 10 24  1  0  0  0  0
 21 24  2  0  0  0  0
 24 25  1  0  0  0  0
 25 26  2  0  0  0  0
 26 27  1  0  0  0  0
 12 28  1  0  0  0  0
 27 28  2  0  0  0  0
  3 29  2  0  0  0  0
 12 29  1  0  0  0  0
  6 30  1  0  0  0  0
 29 30  1  0  0  0  0
  6 31  1  0  0  0  0
 28 31  1  0  0  0  0
 25 32  1  0  0  0  0
 31 32  2  0  0  0  0
 34 36  1  0  0  0  0
 36 39  2  0  0  0  0
 39 41  1  0  0  0  0
 41 43  2  0  0  0  0
 33 45  1  0  0  0  0
 43 45  1  0  0  0  0
 33 46  1  0  0  0  0
 46 47  2  0  0  0  0
 47 48  1  0  0  0  0
 37 49  1  0  0  0  0
 48 49  2  0  0  0  0
 37 50  2  0  0  0  0
 46 50  1  0  0  0  0
 43 51  1  0  0  0  0
 36 52  1  0  0  0  0
 51 52  2  0  0  0  0
 40 53  1  0  0  0  0
 52 53  1  0  0  0  0
 40 54  2  0  0  0  0
 42 54  1  0  0  0  0
 42 55  1  0  0  0  0
 42 56  1  0  0  0  0
 53 56  2  0  0  0  0
 56 57  1  0  0  0  0
 57 58  2  0  0  0  0
 58 59  1  0  0  0  0
 44 60  1  0  0  0  0
 59 60  2  0  0  0  0
 35 61  2  0  0  0  0
 44 61  1  0  0  0  0
 38 62  1  0  0  0  0
 61 62  1  0  0  0  0
 38 63  1  0  0  0  0
 60 63  1  0  0  0  0
 57 64  1  0  0  0  0
 63 64  2  0  0  0  0
M  END
$$$$
