7KNW
  PyMOL3.1          3D                             0

 22 24  0  0  0  0  0  0  0  0999 V2000
  -41.3920   77.3420  -50.4250 N   0  0  0  0  0  0  0  0  0  0  0  0
  -41.2710   78.6100  -47.7500 C   0  0  0  0  0  0  0  0  0  0  0  0
  -39.1000   79.0540  -46.7690 O   0  0  0  0  0  0  0  0  0  0  0  0
  -44.9750   78.8340  -46.3190 Cl  0  0  0  0  0  0  0  0  0  0  0  0
  -42.6370   78.5770  -47.6540 C   0  0  0  0  0  0  0  0  0  0  0  0
  -43.4130   77.3540  -53.4810 N   0  0  0  0  0  0  0  0  0  0  0  0
  -39.3320   77.5450  -49.1740 O   0  0  0  0  0  0  0  0  0  0  0  0
  -40.4690   78.9700  -46.6560 C   0  0  0  0  0  0  0  0  0  0  0  0
  -42.2430   75.6900  -52.6610 N   0  0  0  0  0  0  0  0  0  0  0  0
  -40.3660   79.5310  -49.9000 O   0  0  0  0  0  0  0  0  0  0  0  0
  -43.2480   78.8880  -46.4450 C   0  0  0  0  0  0  0  0  0  0  0  0
  -43.5700   76.3970  -54.2730 N   0  0  0  0  0  0  0  0  0  0  0  0
  -41.0850   79.2850  -45.4560 C   0  0  0  0  0  0  0  0  0  0  0  0
  -42.4650   79.2400  -45.3460 C   0  0  0  0  0  0  0  0  0  0  0  0
  -38.0870   78.7140  -45.8140 C   0  0  0  0  0  0  0  0  0  0  0  0
  -42.6130   76.9690  -52.4670 C   0  0  0  0  0  0  0  0  0  0  0  0
  -42.2800   77.8270  -51.4180 C   0  0  0  0  0  0  0  0  0  0  0  0
  -43.9400   78.5950  -53.5830 C   0  0  0  0  0  0  0  0  0  0  0  0
  -42.8110   79.1280  -51.4940 C   0  0  0  0  0  0  0  0  0  0  0  0
  -43.6360   79.5040  -52.5670 C   0  0  0  0  0  0  0  0  0  0  0  0
  -42.8580   75.3420  -53.8130 C   0  0  0  0  0  0  0  0  0  0  0  0
  -40.5960   78.2410  -49.3100 S   0  0  0  0  0  0  0  0  0  0  0  0
  2  5  2  0  0  0  0
  2  8  1  0  0  0  0
  3  8  1  0  0  0  0
  4 11  1  0  0  0  0
  5 11  1  0  0  0  0
  6 12  1  0  0  0  0
  8 13  2  0  0  0  0
 11 14  2  0  0  0  0
 13 14  1  0  0  0  0
  3 15  1  0  0  0  0
  6 16  1  0  0  0  0
  9 16  2  0  0  0  0
  1 17  1  0  0  0  0
 16 17  1  0  0  0  0
  6 18  1  0  0  0  0
 17 19  2  0  0  0  0
 18 20  2  0  0  0  0
 19 20  1  0  0  0  0
  9 21  1  0  0  0  0
 12 21  2  0  0  0  0
  1 22  1  0  0  0  0
  2 22  1  0  0  0  0
  7 22  2  0  0  0  0
 10 22  2  0  0  0  0
M  END
$$$$
