9FB2
  PyMOL3.1          3D                             0

 46 46  0  0  0  0  0  0  0  0999 V2000
  -30.9390   12.8180    5.2680 C   0  0  0  0  0  0  0  0  0  0  0  0
  -30.2800   11.8110    6.1040 N   0  0  0  0  0  0  0  0  0  0  0  0
  -29.7410   12.2920    7.3740 C   0  0  0  0  0  0  0  0  0  0  0  0
  -30.8510   12.4460    8.4050 C   0  0  0  0  0  0  0  0  0  0  0  0
  -30.2720   12.9060    9.6960 N   0  3  0  0  0  0  0  0  0  0  0  0
  -31.6120   11.1400    8.5190 C   0  0  0  0  0  0  0  0  0  0  0  0
  -32.8630   11.0040    7.9320 C   0  0  0  0  0  0  0  0  0  0  0  0
  -33.5590    9.8220    8.0280 C   0  0  0  0  0  0  0  0  0  0  0  0
  -33.0180    8.7520    8.7120 C   0  0  0  0  0  0  0  0  0  0  0  0
  -31.7620    8.8540    9.3130 C   0  0  0  0  0  0  0  0  0  0  0  0
  -31.0820   10.0620    9.2000 C   0  0  0  0  0  0  0  0  0  0  0  0
  -31.1600    7.7110   10.0570 C   0  0  0  0  0  0  0  0  0  0  0  0
  -30.2270    7.9230   11.0260 C   0  0  0  0  0  0  0  0  0  0  0  0
  -31.5820    6.3690    9.7350 C   0  0  0  0  0  0  0  0  0  0  0  0
  -29.8300   10.3630    5.4990 S   0  0  0  0  0  0  0  0  0  0  0  0
  -29.2340    9.6010    6.5480 O   0  0  0  0  0  0  0  0  0  0  0  0
  -30.9600    9.8450    4.7890 O   0  0  0  0  0  0  0  0  0  0  0  0
  -28.5820   10.7280    4.3190 C   0  0  0  0  0  0  0  0  0  0  0  0
  -27.2690   10.6910    4.7100 C   0  0  0  0  0  0  0  0  0  0  0  0
  -26.3070   10.9730    3.7970 C   0  0  0  0  0  0  0  0  0  0  0  0
  -26.5880   11.2940    2.5000 C   0  0  0  0  0  0  0  0  0  0  0  0
  -27.9030   11.3250    2.1370 C   0  0  0  0  0  0  0  0  0  0  0  0
  -28.9190   11.0490    3.0140 C   0  0  0  0  0  0  0  0  0  0  0  0
  -25.0120   10.9320    4.1970 F   0  0  0  0  0  0  0  0  0  0  0  0
  -28.2160   11.6420    0.8520 F   0  0  0  0  0  0  0  0  0  0  0  0
  -31.4760   13.1440    8.0920 H   0  0  0  0  0  0  0  0  0  0  0  0
  -29.3950   12.6510    9.7540 H   0  0  0  0  0  0  0  0  0  0  0  0
  -30.7350   12.5400   10.3950 H   0  0  0  0  0  0  0  0  0  0  0  0
  -30.3210   13.8180    9.7530 H   0  0  0  0  0  0  0  0  0  0  0  0
  -31.0490   12.4680    4.3620 H   0  0  0  0  0  0  0  0  0  0  0  0
  -30.3920   13.6270    5.2390 H   0  0  0  0  0  0  0  0  0  0  0  0
  -31.8150   13.0310    5.6420 H   0  0  0  0  0  0  0  0  0  0  0  0
  -29.3000   13.1600    7.2350 H   0  0  0  0  0  0  0  0  0  0  0  0
  -29.0700   11.6570    7.7070 H   0  0  0  0  0  0  0  0  0  0  0  0
  -33.2430   11.7400    7.4560 H   0  0  0  0  0  0  0  0  0  0  0  0
  -34.4190    9.7410    7.6200 H   0  0  0  0  0  0  0  0  0  0  0  0
  -33.5070    7.9350    8.7740 H   0  0  0  0  0  0  0  0  0  0  0  0
  -30.2220   10.1500    9.6040 H   0  0  0  0  0  0  0  0  0  0  0  0
  -29.9530    8.8070   11.2390 H   0  0  0  0  0  0  0  0  0  0  0  0
  -29.8480    7.1850   11.4910 H   0  0  0  0  0  0  0  0  0  0  0  0
  -31.9430    6.3480    8.8280 H   0  0  0  0  0  0  0  0  0  0  0  0
  -32.2720    6.0830   10.3660 H   0  0  0  0  0  0  0  0  0  0  0  0
  -30.8170    5.7630    9.7940 H   0  0  0  0  0  0  0  0  0  0  0  0
  -27.0350   10.4690    5.6090 H   0  0  0  0  0  0  0  0  0  0  0  0
  -25.8950   11.4900    1.8750 H   0  0  0  0  0  0  0  0  0  0  0  0
  -29.8320   11.0770    2.7340 H   0  0  0  0  0  0  0  0  0  0  0  0
  1  2  1  0  0  0  0
  2  3  1  0  0  0  0
  3  4  1  0  0  0  0
  4  5  1  0  0  0  0
  4  6  1  0  0  0  0
  6  7  1  0  0  0  0
  7  8  2  0  0  0  0
  8  9  1  0  0  0  0
  9 10  2  0  0  0  0
  6 11  2  0  0  0  0
 10 11  1  0  0  0  0
 10 12  1  0  0  0  0
 12 13  2  0  0  0  0
 12 14  1  0  0  0  0
  2 15  1  0  0  0  0
 15 16  2  0  0  0  0
 15 17  2  0  0  0  0
 15 18  1  0  0  0  0
 18 19  1  0  0  0  0
 19 20  2  0  0  0  0
 20 21  1  0  0  0  0
 21 22  2  0  0  0  0
 18 23  2  0  0  0  0
 22 23  1  0  0  0  0
 20 24  1  0  0  0  0
 22 25  1  0  0  0  0
  4 26  1  0  0  0  0
  5 27  1  0  0  0  0
  5 28  1  0  0  0  0
  1 30  1  0  0  0  0
  1 31  1  0  0  0  0
  1 32  1  0  0  0  0
  3 33  1  0  0  0  0
  3 34  1  0  0  0  0
  7 35  1  0  0  0  0
  8 36  1  0  0  0  0
  9 37  1  0  0  0  0
 11 38  1  0  0  0  0
 13 39  1  0  0  0  0
 13 40  1  0  0  0  0
 14 41  1  0  0  0  0
 14 42  1  0  0  0  0
 14 43  1  0  0  0  0
 19 44  1  0  0  0  0
 21 45  1  0  0  0  0
 23 46  1  0  0  0  0
M  END
$$$$
