6QU4
  PyMOL3.1          3D                             0

 24 26  0  0  0  0  0  0  0  0999 V2000
  -18.4670   53.1290   16.1120 Cl  0  0  0  0  0  0  0  0  0  0  0  0
  -19.1280   53.1270   19.1660 Cl  0  0  0  0  0  0  0  0  0  0  0  0
  -16.8840   49.7480   18.7210 C   0  0  0  0  0  0  0  0  0  0  0  0
  -17.6540   50.7730   19.2730 C   0  0  0  0  0  0  0  0  0  0  0  0
  -18.1330   51.8000   18.4690 C   0  0  0  0  0  0  0  0  0  0  0  0
  -17.8410   51.7980   17.1150 C   0  0  0  0  0  0  0  0  0  0  0  0
  -17.0800   50.7890   16.5460 C   0  0  0  0  0  0  0  0  0  0  0  0
  -16.5960   49.7600   17.3550 C   0  0  0  0  0  0  0  0  0  0  0  0
  -16.3440   48.6480   19.6100 C   0  0  0  0  0  0  0  0  0  0  0  0
  -15.3580   49.2660   20.5170 N   0  0  0  0  0  0  0  0  0  0  0  0
  -14.0150   49.3070   20.3280 C   0  0  0  0  0  0  0  0  0  0  0  0
  -13.4820   50.0370   21.4830 C   0  0  0  0  0  0  0  0  0  0  0  0
  -14.5820   50.3910   22.2910 C   0  0  0  0  0  0  0  0  0  0  0  0
  -15.7050   49.9000   21.6700 C   0  0  0  0  0  0  0  0  0  0  0  0
  -12.0180   50.2430   21.5760 C   0  0  0  0  0  0  0  0  0  0  0  0
  -11.2050   49.7340   20.5350 N   0  0  0  0  0  0  0  0  0  0  0  0
  -11.7510   49.0650   19.4980 C   0  0  0  0  0  0  0  0  0  0  0  0
  -13.1280   48.8400   19.3680 C   0  0  0  0  0  0  0  0  0  0  0  0
  -11.5350   50.8660   22.5470 O   0  0  0  0  0  0  0  0  0  0  0  0
   -9.7440   49.9120   20.5870 C   0  0  0  0  0  0  0  0  0  0  0  0
   -9.2760   51.0650   19.6950 C   0  0  0  0  0  0  0  0  0  0  0  0
   -9.7610   52.3900   20.1340 N   0  0  0  0  0  0  0  0  0  0  0  0
   -9.1880   52.7870   21.4400 C   0  0  0  0  0  0  0  0  0  0  0  0
   -9.4690   53.3910   19.0830 C   0  0  0  0  0  0  0  0  0  0  0  0
  3  4  2  0  0  0  0
  2  5  1  0  0  0  0
  4  5  1  0  0  0  0
  1  6  1  0  0  0  0
  5  6  2  0  0  0  0
  6  7  1  0  0  0  0
  3  8  1  0  0  0  0
  7  8  2  0  0  0  0
  3  9  1  0  0  0  0
  9 10  1  0  0  0  0
 10 11  1  0  0  0  0
 11 12  2  0  0  0  0
 12 13  1  0  0  0  0
 10 14  1  0  0  0  0
 13 14  2  0  0  0  0
 12 15  1  0  0  0  0
 15 16  1  0  0  0  0
 16 17  1  0  0  0  0
 11 18  1  0  0  0  0
 17 18  2  0  0  0  0
 15 19  2  0  0  0  0
 16 20  1  0  0  0  0
 20 21  1  0  0  0  0
 21 22  1  0  0  0  0
 22 23  1  0  0  0  0
 22 24  1  0  0  0  0
M  END
$$$$
