6QU4
  PyMOL3.1          3D                             0

 24 26  0  0  0  0  0  0  0  0999 V2000
  -37.7580   24.5230    0.8960 Cl  0  0  0  0  0  0  0  0  0  0  0  0
  -39.9080   24.0170    3.0080 Cl  0  0  0  0  0  0  0  0  0  0  0  0
  -41.0440   27.6320    1.4650 C   0  0  0  0  0  0  0  0  0  0  0  0
  -41.0080   26.4670    2.2320 C   0  0  0  0  0  0  0  0  0  0  0  0
  -40.0010   25.5310    2.0420 C   0  0  0  0  0  0  0  0  0  0  0  0
  -39.0350   25.7600    1.0910 C   0  0  0  0  0  0  0  0  0  0  0  0
  -39.0550   26.9130    0.3220 C   0  0  0  0  0  0  0  0  0  0  0  0
  -40.0660   27.8490    0.5080 C   0  0  0  0  0  0  0  0  0  0  0  0
  -42.1610   28.6390    1.6540 C   0  0  0  0  0  0  0  0  0  0  0  0
  -43.3750   27.9900    1.1440 N   0  0  0  0  0  0  0  0  0  0  0  0
  -43.8800   28.1580   -0.0990 C   0  0  0  0  0  0  0  0  0  0  0  0
  -45.0620   27.2960   -0.1540 C   0  0  0  0  0  0  0  0  0  0  0  0
  -45.1650   26.6500    1.1030 C   0  0  0  0  0  0  0  0  0  0  0  0
  -44.1170   27.1030    1.8650 C   0  0  0  0  0  0  0  0  0  0  0  0
  -45.8420   27.2750   -1.4150 C   0  0  0  0  0  0  0  0  0  0  0  0
  -45.4110   28.0790   -2.4950 N   0  0  0  0  0  0  0  0  0  0  0  0
  -44.3170   28.8570   -2.3830 C   0  0  0  0  0  0  0  0  0  0  0  0
  -43.5430   28.9140   -1.2180 C   0  0  0  0  0  0  0  0  0  0  0  0
  -46.8530   26.5540   -1.5020 O   0  0  0  0  0  0  0  0  0  0  0  0
  -46.1550   28.0870   -3.7600 C   0  0  0  0  0  0  0  0  0  0  0  0
  -45.5080   27.1590   -4.7890 C   0  0  0  0  0  0  0  0  0  0  0  0
  -45.4260   25.7500   -4.3520 N   0  0  0  0  0  0  0  0  0  0  0  0
  -46.7410   25.0760   -4.3250 C   0  0  0  0  0  0  0  0  0  0  0  0
  -44.5120   25.0110   -5.2510 C   0  0  0  0  0  0  0  0  0  0  0  0
  3  4  2  0  0  0  0
  2  5  1  0  0  0  0
  4  5  1  0  0  0  0
  1  6  1  0  0  0  0
  5  6  2  0  0  0  0
  6  7  1  0  0  0  0
  3  8  1  0  0  0  0
  7  8  2  0  0  0  0
  3  9  1  0  0  0  0
  9 10  1  0  0  0  0
 10 11  1  0  0  0  0
 11 12  2  0  0  0  0
 12 13  1  0  0  0  0
 10 14  1  0  0  0  0
 13 14  2  0  0  0  0
 12 15  1  0  0  0  0
 15 16  1  0  0  0  0
 16 17  1  0  0  0  0
 11 18  1  0  0  0  0
 17 18  2  0  0  0  0
 15 19  2  0  0  0  0
 16 20  1  0  0  0  0
 20 21  1  0  0  0  0
 21 22  1  0  0  0  0
 22 23  1  0  0  0  0
 22 24  1  0  0  0  0
M  END
$$$$
