8SX8
  PyMOL3.1          3D                             0

 58 58  0  0  0  0  0  0  0  0999 V2000
  134.4370  128.0120  117.2600 C   0  0  0  0  0  0  0  0  0  0  0  0
  135.3560  127.7480  116.5070 O   0  0  0  0  0  0  0  0  0  0  0  0
  134.6140  128.2100  118.4480 O   0  0  0  0  0  0  0  0  0  0  0  0
  133.0400  128.1010  116.6750 C   0  0  0  0  0  0  0  0  0  0  0  0
  131.9500  127.6480  117.6610 C   0  0  0  0  0  0  0  0  0  0  0  0
  130.5840  127.5010  116.9660 C   0  0  0  0  0  0  0  0  0  0  0  0
  130.2580  126.0380  116.6720 C   0  0  0  0  0  0  0  0  0  0  0  0
  131.2960  125.3890  115.7420 C   0  0  0  0  0  0  0  0  0  0  0  0
  131.1210  123.8620  115.6870 C   0  0  0  0  0  0  0  0  0  0  0  0
  129.9440  123.3560  114.8300 C   0  0  0  0  0  0  0  0  0  0  0  0
  130.2610  123.3330  113.3420 C   0  0  0  0  0  0  0  0  0  0  0  0
  130.8320  124.2120  112.7230 O   0  0  0  0  0  0  0  0  0  0  0  0
  129.7760  122.0480  112.7230 C   0  0  0  0  0  0  0  0  0  0  0  0
  129.0040  121.3700  113.8530 C   0  0  0  0  0  0  0  0  0  0  0  0
  129.1150  119.9620  113.7960 O   0  0  0  0  0  0  0  0  0  0  0  0
  129.6170  121.8910  115.1510 C   0  0  0  0  0  0  0  0  0  0  0  0
  128.7580  121.7220  116.3950 C   0  0  0  0  0  0  0  0  0  0  0  0
  127.4590  121.3950  116.4210 C   0  0  0  0  0  0  0  0  0  0  0  0
  126.6020  121.1730  117.6420 C   0  0  0  0  0  0  0  0  0  0  0  0
  126.6570  119.7980  117.9610 O   0  0  0  0  0  0  0  0  0  0  0  0
  127.0150  121.9890  118.8790 C   0  0  0  0  0  0  0  0  0  0  0  0
  126.8670  123.5170  118.7070 C   0  0  0  0  0  0  0  0  0  0  0  0
  127.0890  124.2500  120.0550 C   0  0  0  0  0  0  0  0  0  0  0  0
  126.7880  125.7590  119.9830 C   0  0  0  0  0  0  0  0  0  0  0  0
  127.7880  126.5100  119.0890 C   0  0  0  0  0  0  0  0  0  0  0  0
  128.6720  126.3480  119.3650 H   0  0  0  0  0  0  0  0  0  0  0  0
  127.6330  127.4370  119.1330 H   0  0  0  0  0  0  0  0  0  0  0  0
  127.6980  126.2480  118.1900 H   0  0  0  0  0  0  0  0  0  0  0  0
  125.9130  125.8960  119.6660 H   0  0  0  0  0  0  0  0  0  0  0  0
  126.8230  126.1190  120.8510 H   0  0  0  0  0  0  0  0  0  0  0  0
  127.9750  124.1190  120.3430 H   0  0  0  0  0  0  0  0  0  0  0  0
  126.5320  123.8700  120.7100 H   0  0  0  0  0  0  0  0  0  0  0  0
  126.0040  123.7100  118.3840 H   0  0  0  0  0  0  0  0  0  0  0  0
  127.4820  123.8230  118.0640 H   0  0  0  0  0  0  0  0  0  0  0  0
  127.9040  121.7900  119.1160 H   0  0  0  0  0  0  0  0  0  0  0  0
  126.4770  121.7170  119.6000 H   0  0  0  0  0  0  0  0  0  0  0  0
  125.7150  121.4010  117.4260 H   0  0  0  0  0  0  0  0  0  0  0  0
  127.4510  119.6580  118.1760 H   0  0  0  0  0  0  0  0  0  0  0  0
  126.9560  121.3220  115.6170 H   0  0  0  0  0  0  0  0  0  0  0  0
  129.2540  121.7710  117.2070 H   0  0  0  0  0  0  0  0  0  0  0  0
  130.4280  121.4320  115.2830 H   0  0  0  0  0  0  0  0  0  0  0  0
  128.1070  121.6450  113.7860 H   0  0  0  0  0  0  0  0  0  0  0  0
  128.6780  119.6640  114.4390 H   0  0  0  0  0  0  0  0  0  0  0  0
  130.5190  121.5380  112.4530 H   0  0  0  0  0  0  0  0  0  0  0  0
  129.2230  122.2270  111.9840 H   0  0  0  0  0  0  0  0  0  0  0  0
  129.1760  123.8830  114.9590 H   0  0  0  0  0  0  0  0  0  0  0  0
  131.0250  123.5440  116.5680 H   0  0  0  0  0  0  0  0  0  0  0  0
  131.9160  123.4750  115.3650 H   0  0  0  0  0  0  0  0  0  0  0  0
  132.1650  125.5330  116.0700 H   0  0  0  0  0  0  0  0  0  0  0  0
  131.2570  125.7740  114.8840 H   0  0  0  0  0  0  0  0  0  0  0  0
  129.4040  125.9830  116.2820 H   0  0  0  0  0  0  0  0  0  0  0  0
  130.2210  125.5640  117.4840 H   0  0  0  0  0  0  0  0  0  0  0  0
  130.5580  128.0070  116.1730 H   0  0  0  0  0  0  0  0  0  0  0  0
  129.9170  127.8540  117.5270 H   0  0  0  0  0  0  0  0  0  0  0  0
  131.8770  128.2900  118.3450 H   0  0  0  0  0  0  0  0  0  0  0  0
  132.1990  126.8430  118.0780 H   0  0  0  0  0  0  0  0  0  0  0  0
  133.0120  127.6020  115.8800 H   0  0  0  0  0  0  0  0  0  0  0  0
  132.8830  128.9970  116.4300 H   0  0  0  0  0  0  0  0  0  0  0  0
  1  2  1  0  0  0  0
  1  3  2  0  0  0  0
  1  4  1  0  0  0  0
  4  5  1  0  0  0  0
  5  6  1  0  0  0  0
  6  7  1  0  0  0  0
  7  8  1  0  0  0  0
  8  9  1  0  0  0  0
  9 10  1  0  0  0  0
 10 11  1  0  0  0  0
 11 12  2  0  0  0  0
 11 13  1  0  0  0  0
 13 14  1  0  0  0  0
 14 15  1  0  0  0  0
 10 16  1  0  0  0  0
 14 16  1  0  0  0  0
 16 17  1  0  0  0  0
 17 18  2  0  0  0  0
 18 19  1  0  0  0  0
 19 20  1  0  0  0  0
 19 21  1  0  0  0  0
 21 22  1  0  0  0  0
 22 23  1  0  0  0  0
 23 24  1  0  0  0  0
 24 25  1  0  0  0  0
 25 26  1  0  0  0  0
 25 27  1  0  0  0  0
 25 28  1  0  0  0  0
 24 29  1  0  0  0  0
 24 30  1  0  0  0  0
 23 31  1  0  0  0  0
 23 32  1  0  0  0  0
 22 33  1  0  0  0  0
 22 34  1  0  0  0  0
 21 35  1  0  0  0  0
 21 36  1  0  0  0  0
 19 37  1  0  0  0  0
 20 38  1  0  0  0  0
 18 39  1  0  0  0  0
 17 40  1  0  0  0  0
 16 41  1  0  0  0  0
 14 42  1  0  0  0  0
 15 43  1  0  0  0  0
 13 44  1  0  0  0  0
 13 45  1  0  0  0  0
 10 46  1  0  0  0  0
  9 47  1  0  0  0  0
  9 48  1  0  0  0  0
  8 49  1  0  0  0  0
  8 50  1  0  0  0  0
  7 51  1  0  0  0  0
  7 52  1  0  0  0  0
  6 53  1  0  0  0  0
  6 54  1  0  0  0  0
  5 55  1  0  0  0  0
  5 56  1  0  0  0  0
  4 57  1  0  0  0  0
  4 58  1  0  0  0  0
M  END
$$$$
