8DB9
  PyMOL3.1          3D                             0

 17 18  0  0  0  0  0  0  0  0999 V2000
  -22.2260  -47.7420  -36.6040 C   0  0  0  0  0  0  0  0  0  0  0  0
  -20.9990  -47.6550  -36.1870 N   0  0  0  0  0  0  0  0  0  0  0  0
  -20.9240  -46.5460  -35.4190 C   0  0  0  0  0  0  0  0  0  0  0  0
  -22.0810  -45.9830  -35.3700 N   0  0  0  0  0  0  0  0  0  0  0  0
  -22.9000  -46.7350  -36.1100 N   0  0  0  0  0  0  0  0  0  0  0  0
  -24.2980  -46.4580  -36.3320 C   0  0  0  0  0  0  0  0  0  0  0  0
  -25.4250  -47.5920  -36.4340 C   0  0  0  0  0  0  0  0  0  0  0  0
  -25.9370  -47.7090  -35.2450 C   0  0  0  0  0  0  0  0  0  0  0  0
  -25.4500  -46.3980  -34.3250 C   0  0  0  0  0  0  0  0  0  0  0  0
  -24.6150  -45.6580  -35.0340 O   0  0  0  0  0  0  0  0  0  0  0  0
  -24.6540  -46.9540  -33.0860 C   0  0  0  0  0  0  0  0  0  0  0  0
  -25.3300  -46.5910  -31.9120 O   0  0  0  0  0  0  0  0  0  0  0  0
  -27.3780  -47.7920  -35.2740 O   0  0  0  0  0  0  0  0  0  0  0  0
  -26.3540  -47.1690  -37.3970 O   0  0  0  0  0  0  0  0  0  0  0  0
  -19.6420  -46.0460  -34.7050 C   0  0  0  0  0  0  0  0  0  0  0  0
  -19.4090  -44.8350  -34.5920 N   0  0  0  0  0  0  0  0  0  0  0  0
  -18.7100  -47.0730  -34.1600 N   0  0  0  0  0  0  0  0  0  0  0  0
  1  2  2  0  0  0  0
  2  3  1  0  0  0  0
  3  4  2  0  0  0  0
  1  5  1  0  0  0  0
  4  5  1  0  0  0  0
  5  6  1  0  0  0  0
  6  7  1  0  0  0  0
  7  8  1  0  0  0  0
  8  9  1  0  0  0  0
  6 10  1  0  0  0  0
  9 10  1  0  0  0  0
  9 11  1  0  0  0  0
 11 12  1  0  0  0  0
  8 13  1  0  0  0  0
  7 14  1  0  0  0  0
  3 15  1  0  0  0  0
 15 16  2  0  0  0  0
 15 17  1  0  0  0  0
M  END
$$$$
