8DB9
  PyMOL3.1          3D                             0

 17 18  0  0  0  0  0  0  0  0999 V2000
   -0.1220  -12.8480  -25.7860 C   0  0  0  0  0  0  0  0  0  0  0  0
   -0.6250  -11.8420  -25.1360 N   0  0  0  0  0  0  0  0  0  0  0  0
   -1.8760  -11.6330  -25.5980 C   0  0  0  0  0  0  0  0  0  0  0  0
   -2.1110  -12.5040  -26.5080 N   0  0  0  0  0  0  0  0  0  0  0  0
   -1.0200  -13.2670  -26.6340 N   0  0  0  0  0  0  0  0  0  0  0  0
   -0.8720  -14.3710  -27.5560 C   0  0  0  0  0  0  0  0  0  0  0  0
   -1.6590  -14.4820  -28.9520 C   0  0  0  0  0  0  0  0  0  0  0  0
   -0.9080  -13.7910  -29.7530 C   0  0  0  0  0  0  0  0  0  0  0  0
    0.6530  -14.1590  -29.2810 C   0  0  0  0  0  0  0  0  0  0  0  0
    0.6230  -14.1580  -27.9510 O   0  0  0  0  0  0  0  0  0  0  0  0
    1.6580  -13.0570  -29.8040 C   0  0  0  0  0  0  0  0  0  0  0  0
    2.9690  -13.5330  -29.6120 O   0  0  0  0  0  0  0  0  0  0  0  0
   -1.1190  -14.0730  -31.1590 O   0  0  0  0  0  0  0  0  0  0  0  0
   -1.7400  -15.8450  -29.3130 O   0  0  0  0  0  0  0  0  0  0  0  0
   -2.8600  -10.5300  -25.1090 C   0  0  0  0  0  0  0  0  0  0  0  0
   -3.1120   -9.3230  -25.9520 N   0  0  0  0  0  0  0  0  0  0  0  0
   -3.4320  -10.6530  -24.0260 N   0  0  0  0  0  0  0  0  0  0  0  0
  1  2  2  0  0  0  0
  2  3  1  0  0  0  0
  3  4  2  0  0  0  0
  1  5  1  0  0  0  0
  4  5  1  0  0  0  0
  5  6  1  0  0  0  0
  6  7  1  0  0  0  0
  7  8  1  0  0  0  0
  8  9  1  0  0  0  0
  6 10  1  0  0  0  0
  9 10  1  0  0  0  0
  9 11  1  0  0  0  0
 11 12  1  0  0  0  0
  8 13  1  0  0  0  0
  7 14  1  0  0  0  0
  3 15  1  0  0  0  0
 15 16  2  0  0  0  0
 15 17  1  0  0  0  0
M  END
$$$$
