8P6V
  PyMOL3.1          3D                             0

 29 32  0  0  0  0  0  0  0  0999 V2000
  154.6200  137.5900  122.1050 N   0  0  0  0  0  0  0  0  0  0  0  0
  154.2100  137.1280  127.8930 O   0  0  0  0  0  0  0  0  0  0  0  0
  155.5040  137.3320  123.1740 N   0  0  0  0  0  0  0  0  0  0  0  0
  156.8280  137.6050  123.2890 C   0  0  0  0  0  0  0  0  0  0  0  0
  157.4970  137.2580  124.4370 C   0  0  0  0  0  0  0  0  0  0  0  0
  156.8120  136.6300  125.4700 C   0  0  0  0  0  0  0  0  0  0  0  0
  155.5170  136.3700  125.3400 N   0  0  0  0  0  0  0  0  0  0  0  0
  154.8410  136.7270  124.1700 C   0  0  0  0  0  0  0  0  0  0  0  0
  153.4930  136.5770  123.7570 C   0  0  0  0  0  0  0  0  0  0  0  0
  153.3840  137.1200  122.4690 C   0  0  0  0  0  0  0  0  0  0  0  0
  157.5370  138.2890  122.1720 N   0  0  0  0  0  0  0  0  0  0  0  0
  158.9910  138.6580  122.2980 C   0  0  0  0  0  0  0  0  0  0  0  0
  159.2320  139.8910  123.2250 C   0  0  0  0  0  0  0  0  0  0  0  0
  160.4830  140.4810  123.2420 C   0  0  0  0  0  0  0  0  0  0  0  0
  160.7280  141.5810  124.0610 C   0  0  0  0  0  0  0  0  0  0  0  0
  159.7160  142.0920  124.8650 C   0  0  0  0  0  0  0  0  0  0  0  0
  158.4610  141.5070  124.8530 C   0  0  0  0  0  0  0  0  0  0  0  0
  158.2160  140.4110  124.0310 C   0  0  0  0  0  0  0  0  0  0  0  0
  157.5070  136.2620  126.6920 N   0  0  0  0  0  0  0  0  0  0  0  0
  152.3040  135.9040  124.5930 C   0  0  0  0  0  0  0  0  0  0  0  0
  151.7290  136.8490  125.6520 C   0  0  0  0  0  0  0  0  0  0  0  0
  152.7270  134.5650  125.2110 C   0  0  0  0  0  0  0  0  0  0  0  0
  156.7310  135.7160  127.8430 C   0  0  0  0  0  0  0  0  0  0  0  0
  156.3660  136.8540  128.8950 C   0  0  0  0  0  0  0  0  0  0  0  0
  155.3970  137.8270  128.2760 C   0  0  0  0  0  0  0  0  0  0  0  0
  155.0480  138.9390  129.2420 C   0  0  0  0  0  0  0  0  0  0  0  0
  156.2470  139.6160  129.7210 N   0  0  0  0  0  0  0  0  0  0  0  0
  157.2600  138.6630  130.2830 C   0  0  0  0  0  0  0  0  0  0  0  0
  157.5810  137.5310  129.3240 C   0  0  0  0  0  0  0  0  0  0  0  0
  1  3  1  0  0  0  0
  3  4  1  0  0  0  0
  4  5  2  0  0  0  0
  5  6  1  0  0  0  0
  6  7  2  0  0  0  0
  3  8  1  0  0  0  0
  7  8  1  0  0  0  0
  8  9  2  0  0  0  0
  1 10  2  0  0  0  0
  9 10  1  0  0  0  0
  4 11  1  0  0  0  0
 11 12  1  0  0  0  0
 12 13  1  0  0  0  0
 13 14  2  0  0  0  0
 14 15  1  0  0  0  0
 15 16  2  0  0  0  0
 16 17  1  0  0  0  0
 13 18  1  0  0  0  0
 17 18  2  0  0  0  0
  6 19  1  0  0  0  0
  9 20  1  0  0  0  0
 20 21  1  0  0  0  0
 20 22  1  0  0  0  0
 19 23  1  0  0  0  0
 23 24  1  0  0  0  0
  2 25  1  0  0  0  0
 24 25  1  0  0  0  0
 25 26  1  0  0  0  0
 26 27  1  0  0  0  0
 27 28  1  0  0  0  0
 24 29  1  0  0  0  0
 28 29  1  0  0  0  0
M  END
$$$$
