8XOF
  PyMOL3.1          3D                             0

 30 33  0  0  0  0  0  0  0  0999 V2000
   90.6660   93.3530  137.8670 Cl  0  0  0  0  0  0  0  0  0  0  0  0
   95.3250   94.2140  122.5740 Cl  0  0  0  0  0  0  0  0  0  0  0  0
   94.7280   94.3950  129.7880 N   0  0  0  0  0  0  0  0  0  0  0  0
   95.3100   94.6940  133.1630 N   0  0  0  0  0  0  0  0  0  0  0  0
   96.7260   97.0210  128.5470 N   0  0  0  0  0  0  0  0  0  0  0  0
   95.7300   93.3540  137.1070 N   0  0  0  0  0  0  0  0  0  0  0  0
   95.6550   98.7550  124.8860 N   0  0  0  0  0  0  0  0  0  0  0  0
   94.0950   94.3070  131.0920 C   0  0  0  0  0  0  0  0  0  0  0  0
   95.9540   95.1650  129.9020 C   0  0  0  0  0  0  0  0  0  0  0  0
   95.0930   93.7350  132.0960 C   0  0  0  0  0  0  0  0  0  0  0  0
   95.6850   96.6030  129.4660 C   0  0  0  0  0  0  0  0  0  0  0  0
   93.8280   95.0420  128.8490 C   0  0  0  0  0  0  0  0  0  0  0  0
   95.4610   94.2300  134.5290 C   0  0  0  0  0  0  0  0  0  0  0  0
   96.3570   97.6260  127.2830 C   0  0  0  0  0  0  0  0  0  0  0  0
   94.3620   94.0290  135.2960 C   0  0  0  0  0  0  0  0  0  0  0  0
   96.1200   96.8410  126.2040 C   0  0  0  0  0  0  0  0  0  0  0  0
   94.5000   93.5860  136.6000 C   0  0  0  0  0  0  0  0  0  0  0  0
   95.7670   97.4150  124.9970 C   0  0  0  0  0  0  0  0  0  0  0  0
   96.6940   93.9970  135.0400 C   0  0  0  0  0  0  0  0  0  0  0  0
   96.2450   98.9730  127.1740 C   0  0  0  0  0  0  0  0  0  0  0  0
   93.1020   94.2650  134.7720 C   0  0  0  0  0  0  0  0  0  0  0  0
   96.2330   95.4630  126.3120 C   0  0  0  0  0  0  0  0  0  0  0  0
   96.8280   93.5540  136.3460 C   0  0  0  0  0  0  0  0  0  0  0  0
   95.8900   99.5400  125.9610 C   0  0  0  0  0  0  0  0  0  0  0  0
   93.3760   93.3800  137.3830 C   0  0  0  0  0  0  0  0  0  0  0  0
   95.5240   96.6210  123.8890 C   0  0  0  0  0  0  0  0  0  0  0  0
   91.9770   94.0600  135.5550 C   0  0  0  0  0  0  0  0  0  0  0  0
   95.9900   94.6660  125.2060 C   0  0  0  0  0  0  0  0  0  0  0  0
   92.1150   93.6170  136.8600 C   0  0  0  0  0  0  0  0  0  0  0  0
   95.6360   95.2440  123.9970 C   0  0  0  0  0  0  0  0  0  0  0  0
  3  8  1  0  0  0  0
  3  9  1  0  0  0  0
  4 10  1  0  0  0  0
  8 10  1  0  0  0  0
  5 11  1  0  0  0  0
  9 11  1  0  0  0  0
  3 12  1  0  0  0  0
  4 13  1  0  0  0  0
  5 14  1  0  0  0  0
 13 15  1  0  0  0  0
 14 16  1  0  0  0  0
  6 17  1  0  0  0  0
 15 17  1  0  0  0  0
  7 18  1  0  0  0  0
 16 18  2  0  0  0  0
 13 19  2  0  0  0  0
 14 20  2  0  0  0  0
 15 21  2  0  0  0  0
 16 22  1  0  0  0  0
  6 23  2  0  0  0  0
 19 23  1  0  0  0  0
  7 24  2  0  0  0  0
 20 24  1  0  0  0  0
 17 25  2  0  0  0  0
 18 26  1  0  0  0  0
 21 27  1  0  0  0  0
 22 28  2  0  0  0  0
  1 29  1  0  0  0  0
 25 29  1  0  0  0  0
 27 29  2  0  0  0  0
  2 30  1  0  0  0  0
 26 30  2  0  0  0  0
 28 30  1  0  0  0  0
M  END
$$$$
