7Y1J
  PyMOL3.1          3D                             0

 33 35  0  0  0  0  0  0  0  0999 V2000
  135.5970  126.2360  129.5310 N   0  0  0  0  0  0  0  0  0  0  0  0
  135.2910  127.5630  129.0250 C   0  0  0  0  0  0  0  0  0  0  0  0
  135.3470  121.4470  127.7420 O   0  0  0  0  0  0  0  0  0  0  0  0
  135.3980  126.1670  130.9650 C   0  0  0  0  0  0  0  0  0  0  0  0
  135.1480  123.6040  128.4460 N   0  0  0  0  0  0  0  0  0  0  0  0
  131.2910  124.4280  132.7230 O   0  0  0  0  0  0  0  0  0  0  0  0
  133.8050  127.8430  129.2330 C   0  0  0  0  0  0  0  0  0  0  0  0
  128.8190  125.8150  130.0250 O   0  0  0  0  0  0  0  0  0  0  0  0
  133.9650  126.4920  131.3510 C   0  0  0  0  0  0  0  0  0  0  0  0
  130.1320  126.6730  131.5340 O   0  0  0  0  0  0  0  0  0  0  0  0
  133.4700  127.7830  130.7180 C   0  0  0  0  0  0  0  0  0  0  0  0
  136.0880  124.1440  127.4870 C   0  0  0  0  0  0  0  0  0  0  0  0
  136.9510  125.8390  129.1950 C   0  0  0  0  0  0  0  0  0  0  0  0
  137.2100  124.8620  128.2400 C   0  0  0  0  0  0  0  0  0  0  0  0
  135.3460  125.1240  126.5760 C   0  0  0  0  0  0  0  0  0  0  0  0
  135.5830  124.9000  125.0840 C   0  0  0  0  0  0  0  0  0  0  0  0
  138.0010  126.4560  129.8500 C   0  0  0  0  0  0  0  0  0  0  0  0
  138.5210  124.5140  127.9590 C   0  0  0  0  0  0  0  0  0  0  0  0
  136.8610  124.1130  124.8270 C   0  0  0  0  0  0  0  0  0  0  0  0
  135.6880  126.2570  124.3970 C   0  0  0  0  0  0  0  0  0  0  0  0
  139.3060  126.1040  129.5630 C   0  0  0  0  0  0  0  0  0  0  0  0
  139.5650  125.1310  128.6180 C   0  0  0  0  0  0  0  0  0  0  0  0
  134.8290  122.1940  128.4960 C   0  0  0  0  0  0  0  0  0  0  0  0
  133.8240  121.6750  129.5200 C   0  0  0  0  0  0  0  0  0  0  0  0
  132.7930  122.7560  129.8190 C   0  0  0  0  0  0  0  0  0  0  0  0
  132.5140  123.0930  131.1290 C   0  0  0  0  0  0  0  0  0  0  0  0
  132.1370  123.3940  128.7880 C   0  0  0  0  0  0  0  0  0  0  0  0
  131.5800  124.0710  131.4040 C   0  0  0  0  0  0  0  0  0  0  0  0
  131.2080  124.3770  129.0580 C   0  0  0  0  0  0  0  0  0  0  0  0
  130.9310  124.7150  130.3680 C   0  0  0  0  0  0  0  0  0  0  0  0
  129.9010  125.7980  130.6610 C   0  0  0  0  0  0  0  0  0  0  0  0
  131.5240  123.4410  133.6790 C   0  0  0  0  0  0  0  0  0  0  0  0
  130.7490  123.7940  134.9420 C   0  0  0  0  0  0  0  0  0  0  0  0
  1  2  1  0  0  0  0
  1  4  1  0  0  0  0
  2  7  1  0  0  0  0
  4  9  1  0  0  0  0
  7 11  1  0  0  0  0
  9 11  1  0  0  0  0
  5 12  1  0  0  0  0
  1 13  1  0  0  0  0
 12 14  1  0  0  0  0
 13 14  2  0  0  0  0
 12 15  1  0  0  0  0
 15 16  1  0  0  0  0
 13 17  1  0  0  0  0
 14 18  1  0  0  0  0
 16 19  1  0  0  0  0
 16 20  1  0  0  0  0
 17 21  2  0  0  0  0
 18 22  2  0  0  0  0
 21 22  1  0  0  0  0
  3 23  2  0  0  0  0
  5 23  1  0  0  0  0
 23 24  1  0  0  0  0
 24 25  1  0  0  0  0
 25 26  1  0  0  0  0
 25 27  2  0  0  0  0
  6 28  1  0  0  0  0
 26 28  2  0  0  0  0
 27 29  1  0  0  0  0
 28 30  1  0  0  0  0
 29 30  2  0  0  0  0
  8 31  2  0  0  0  0
 10 31  1  0  0  0  0
 30 31  1  0  0  0  0
  6 32  1  0  0  0  0
 32 33  1  0  0  0  0
M  END
$$$$
