7WDB
  PyMOL3.1          3D                             0

 15 16  0  0  0  0  0  0  0  0999 V2000
  117.6420  165.1970  155.4020 C   0  0  0  0  0  0  0  0  0  0  0  0
  115.1270  162.4430  157.3550 N   0  0  0  0  0  0  0  0  0  0  0  0
  119.5890  166.3680  156.5890 O   0  0  0  0  0  0  0  0  0  0  0  0
  116.5360  162.9450  159.2510 S   0  0  0  0  0  0  0  0  0  0  0  0
  116.4980  164.2020  155.5440 C   0  0  0  0  0  0  0  0  0  0  0  0
  114.5230  161.1950  159.5200 N   0  0  0  0  0  0  0  0  0  0  0  0
  116.2150  163.4950  156.9090 C   0  0  0  0  0  0  0  0  0  0  0  0
  117.0420  163.7760  158.0660 C   0  0  0  0  0  0  0  0  0  0  0  0
  118.2050  164.7810  157.9370 C   0  0  0  0  0  0  0  0  0  0  0  0
  118.5060  165.4760  156.6190 C   0  0  0  0  0  0  0  0  0  0  0  0
  120.8740  165.7450  156.6010 C   0  0  0  0  0  0  0  0  0  0  0  0
  115.3260  162.1250  158.7420 C   0  0  0  0  0  0  0  0  0  0  0  0
  121.8270  166.7350  156.6680 F   0  0  0  0  0  0  0  0  0  0  0  0
  121.0620  164.8950  157.6800 F   0  0  0  0  0  0  0  0  0  0  0  0
  121.0510  165.0260  155.4360 F   0  0  0  0  0  0  0  0  0  0  0  0
  1  5  1  0  0  0  0
  2  7  1  0  0  0  0
  5  7  2  0  0  0  0
  4  8  1  0  0  0  0
  7  8  1  0  0  0  0
  8  9  2  0  0  0  0
  1 10  2  0  0  0  0
  3 10  1  0  0  0  0
  9 10  1  0  0  0  0
  3 11  1  0  0  0  0
  2 12  2  0  0  0  0
  4 12  1  0  0  0  0
  6 12  1  0  0  0  0
 11 13  1  0  0  0  0
 11 14  1  0  0  0  0
 11 15  1  0  0  0  0
M  END
$$$$
