8BQ4
  PyMOL3.1          3D                             0

 34 36  0  0  0  0  0  0  0  0999 V2000
   -7.4560   20.7500   48.2650 C   0  0  0  0  0  0  0  0  0  0  0  0
   -9.9930   17.2670   44.6640 N   0  0  0  0  0  0  0  0  0  0  0  0
  -14.0310   13.1990   41.5830 O   0  0  0  0  0  0  0  0  0  0  0  0
  -12.7220   12.7270   41.9450 S   0  0  0  0  0  0  0  0  0  0  0  0
   -8.1830   20.5370   46.9690 C   0  0  0  0  0  0  0  0  0  0  0  0
  -10.5550   19.0750   43.2240 N   0  0  0  0  0  0  0  0  0  0  0  0
  -12.6080   11.5370   42.7370 O   0  0  0  0  0  0  0  0  0  0  0  0
   -8.5440   21.9060   45.9480 S   0  0  0  0  0  0  0  0  0  0  0  0
   -8.6490   19.3790   46.4470 C   0  0  0  0  0  0  0  0  0  0  0  0
   -9.9280   21.3200   43.6990 N   0  0  0  0  0  0  0  0  0  0  0  0
   -9.3330   19.5570   45.2000 C   0  0  0  0  0  0  0  0  0  0  0  0
   -9.9590   18.6150   44.3490 C   0  0  0  0  0  0  0  0  0  0  0  0
  -10.6380   16.1940   44.0190 C   0  0  0  0  0  0  0  0  0  0  0  0
  -10.2740   14.8730   44.3170 C   0  0  0  0  0  0  0  0  0  0  0  0
  -10.9150   13.8100   43.7050 C   0  0  0  0  0  0  0  0  0  0  0  0
  -11.8990   14.0590   42.7590 C   0  0  0  0  0  0  0  0  0  0  0  0
  -12.2860   15.3550   42.4590 C   0  0  0  0  0  0  0  0  0  0  0  0
  -11.6580   16.4140   43.0810 C   0  0  0  0  0  0  0  0  0  0  0  0
  -11.7880   12.4990   40.4760 C   0  0  0  0  0  0  0  0  0  0  0  0
  -10.5260   20.3920   42.9520 C   0  0  0  0  0  0  0  0  0  0  0  0
   -9.3490   20.8880   44.8250 C   0  0  0  0  0  0  0  0  0  0  0  0
   -6.8880   21.5280   48.1930 H   0  0  0  0  0  0  0  0  0  0  0  0
   -6.9170   19.9750   48.4650 H   0  0  0  0  0  0  0  0  0  0  0  0
   -8.0980   20.8860   48.9750 H   0  0  0  0  0  0  0  0  0  0  0  0
   -8.5310   18.5460   46.8750 H   0  0  0  0  0  0  0  0  0  0  0  0
   -9.5670   17.0520   45.3870 H   0  0  0  0  0  0  0  0  0  0  0  0
   -9.6020   14.7090   44.9530 H   0  0  0  0  0  0  0  0  0  0  0  0
  -10.6540   12.9280   43.9010 H   0  0  0  0  0  0  0  0  0  0  0  0
  -12.9470   15.5170   41.8130 H   0  0  0  0  0  0  0  0  0  0  0  0
  -11.9270   17.2880   42.8810 H   0  0  0  0  0  0  0  0  0  0  0  0
  -11.1830   11.7570   40.5940 H   0  0  0  0  0  0  0  0  0  0  0  0
  -11.2880   13.3010   40.2870 H   0  0  0  0  0  0  0  0  0  0  0  0
  -12.3870   12.3120   39.7420 H   0  0  0  0  0  0  0  0  0  0  0  0
  -10.9420   20.6750   42.1600 H   0  0  0  0  0  0  0  0  0  0  0  0
  3  4  2  0  0  0  0
  1  5  1  0  0  0  0
  4  7  2  0  0  0  0
  5  8  1  0  0  0  0
  5  9  2  0  0  0  0
  9 11  1  0  0  0  0
  2 12  1  0  0  0  0
  6 12  1  0  0  0  0
 11 12  2  0  0  0  0
  2 13  1  0  0  0  0
 13 14  1  0  0  0  0
 14 15  2  0  0  0  0
  4 16  1  0  0  0  0
 15 16  1  0  0  0  0
 16 17  2  0  0  0  0
 13 18  2  0  0  0  0
 17 18  1  0  0  0  0
  4 19  1  0  0  0  0
  6 20  2  0  0  0  0
 10 20  1  0  0  0  0
  8 21  1  0  0  0  0
 10 21  2  0  0  0  0
 11 21  1  0  0  0  0
  1 22  1  0  0  0  0
  1 23  1  0  0  0  0
  1 24  1  0  0  0  0
  9 25  1  0  0  0  0
  2 26  1  0  0  0  0
 14 27  1  0  0  0  0
 15 28  1  0  0  0  0
 17 29  1  0  0  0  0
 18 30  1  0  0  0  0
 19 31  1  0  0  0  0
 19 32  1  0  0  0  0
 19 33  1  0  0  0  0
 20 34  1  0  0  0  0
M  END
$$$$
