8BQ4
  PyMOL3.1          3D                             0

 34 36  0  0  0  0  0  0  0  0999 V2000
    9.6820   21.6810  -14.5890 C   0  0  0  0  0  0  0  0  0  0  0  0
   12.6840   18.5460  -11.0240 N   0  0  0  0  0  0  0  0  0  0  0  0
   17.1670   14.9870   -7.9210 O   0  0  0  0  0  0  0  0  0  0  0  0
   15.9200   14.3750   -8.2710 S   0  0  0  0  0  0  0  0  0  0  0  0
   10.4410   21.5570  -13.3010 C   0  0  0  0  0  0  0  0  0  0  0  0
   13.0300   20.4150   -9.5910 N   0  0  0  0  0  0  0  0  0  0  0  0
   15.9490   13.1710   -9.0520 O   0  0  0  0  0  0  0  0  0  0  0  0
   10.6060   22.9580  -12.2750 S   0  0  0  0  0  0  0  0  0  0  0  0
   11.0540   20.4650  -12.7820 C   0  0  0  0  0  0  0  0  0  0  0  0
   12.1160   22.5620  -10.0580 N   0  0  0  0  0  0  0  0  0  0  0  0
   11.7270   20.7320  -11.5480 C   0  0  0  0  0  0  0  0  0  0  0  0
   12.4920   19.8840  -10.7160 C   0  0  0  0  0  0  0  0  0  0  0  0
   13.4320   17.5480  -10.3700 C   0  0  0  0  0  0  0  0  0  0  0  0
   13.2330   16.1920  -10.6680 C   0  0  0  0  0  0  0  0  0  0  0  0
   13.9920   15.2130  -10.0450 C   0  0  0  0  0  0  0  0  0  0  0  0
   14.9400   15.5850   -9.1040 C   0  0  0  0  0  0  0  0  0  0  0  0
   15.1640   16.9180   -8.8150 C   0  0  0  0  0  0  0  0  0  0  0  0
   14.4080   17.8930   -9.4310 C   0  0  0  0  0  0  0  0  0  0  0  0
   15.0270   14.0570   -6.8010 C   0  0  0  0  0  0  0  0  0  0  0  0
   12.8280   21.7170   -9.3150 C   0  0  0  0  0  0  0  0  0  0  0  0
   11.5690   22.0540  -11.1680 C   0  0  0  0  0  0  0  0  0  0  0  0
    9.0290   22.3890  -14.5110 H   0  0  0  0  0  0  0  0  0  0  0  0
    9.2320   20.8470  -14.7790 H   0  0  0  0  0  0  0  0  0  0  0  0
   10.2960   21.8870  -15.3060 H   0  0  0  0  0  0  0  0  0  0  0  0
   11.0290   19.6200  -13.2050 H   0  0  0  0  0  0  0  0  0  0  0  0
   12.2650   18.2740  -11.7340 H   0  0  0  0  0  0  0  0  0  0  0  0
   12.5710   15.9460  -11.2860 H   0  0  0  0  0  0  0  0  0  0  0  0
   13.8270   14.3040  -10.2250 H   0  0  0  0  0  0  0  0  0  0  0  0
   15.8080   17.1630   -8.1790 H   0  0  0  0  0  0  0  0  0  0  0  0
   14.5860   18.7920   -9.2500 H   0  0  0  0  0  0  0  0  0  0  0  0
   14.5070   13.2510   -6.9100 H   0  0  0  0  0  0  0  0  0  0  0  0
   14.4350   14.7980   -6.6180 H   0  0  0  0  0  0  0  0  0  0  0  0
   15.6450   13.9500   -6.0680 H   0  0  0  0  0  0  0  0  0  0  0  0
   13.2090   22.0520   -8.5270 H   0  0  0  0  0  0  0  0  0  0  0  0
  3  4  2  0  0  0  0
  1  5  1  0  0  0  0
  4  7  2  0  0  0  0
  5  8  1  0  0  0  0
  5  9  2  0  0  0  0
  9 11  1  0  0  0  0
  2 12  1  0  0  0  0
  6 12  1  0  0  0  0
 11 12  2  0  0  0  0
  2 13  1  0  0  0  0
 13 14  1  0  0  0  0
 14 15  2  0  0  0  0
  4 16  1  0  0  0  0
 15 16  1  0  0  0  0
 16 17  2  0  0  0  0
 13 18  2  0  0  0  0
 17 18  1  0  0  0  0
  4 19  1  0  0  0  0
  6 20  2  0  0  0  0
 10 20  1  0  0  0  0
  8 21  1  0  0  0  0
 10 21  2  0  0  0  0
 11 21  1  0  0  0  0
  1 22  1  0  0  0  0
  1 23  1  0  0  0  0
  1 24  1  0  0  0  0
  9 25  1  0  0  0  0
  2 26  1  0  0  0  0
 14 27  1  0  0  0  0
 15 28  1  0  0  0  0
 17 29  1  0  0  0  0
 18 30  1  0  0  0  0
 19 31  1  0  0  0  0
 19 32  1  0  0  0  0
 19 33  1  0  0  0  0
 20 34  1  0  0  0  0
M  END
$$$$
