8IRN
  PyMOL3.1          3D                             0

 54 58  0  0  0  0  0  0  0  0999 V2000
  107.7770   84.3590   92.4880 N   0  0  0  0  0  0  0  0  0  0  0  0
  108.7040   84.4980   91.5590 C   0  0  0  0  0  0  0  0  0  0  0  0
  109.9430   84.8160   91.8700 N   0  0  0  0  0  0  0  0  0  0  0  0
  110.3340   85.0110   93.1530 C   0  0  0  0  0  0  0  0  0  0  0  0
  109.4050   84.8740   94.1330 C   0  0  0  0  0  0  0  0  0  0  0  0
  108.0730   84.5320   93.7660 C   0  0  0  0  0  0  0  0  0  0  0  0
  110.0280   85.1160   95.3040 N   0  0  0  0  0  0  0  0  0  0  0  0
  111.3090   85.3960   95.0680 C   0  0  0  0  0  0  0  0  0  0  0  0
  106.7010   85.4740   95.6470 C   0  0  0  0  0  0  0  0  0  0  0  0
  111.5130   85.3360   93.7520 N   0  0  0  0  0  0  0  0  0  0  0  0
  105.5300   86.2730   95.0830 C   0  0  0  0  0  0  0  0  0  0  0  0
  107.0380   84.3730   94.7680 N   0  0  0  0  0  0  0  0  0  0  0  0
  104.2760   86.1550   95.6540 C   0  0  0  0  0  0  0  0  0  0  0  0
  103.2150   86.8810   95.1410 C   0  0  0  0  0  0  0  0  0  0  0  0
  103.4100   87.7260   94.0620 C   0  0  0  0  0  0  0  0  0  0  0  0
  104.6660   87.8450   93.4940 C   0  0  0  0  0  0  0  0  0  0  0  0
  105.7270   87.1180   94.0050 C   0  0  0  0  0  0  0  0  0  0  0  0
  108.4410   84.3510   90.5190 H   0  0  0  0  0  0  0  0  0  0  0  0
  112.0560   85.6330   95.8150 H   0  0  0  0  0  0  0  0  0  0  0  0
  106.5550   83.5000   94.8540 H   0  0  0  0  0  0  0  0  0  0  0  0
  104.1240   85.4940   96.4980 H   0  0  0  0  0  0  0  0  0  0  0  0
  102.2320   86.7900   95.5860 H   0  0  0  0  0  0  0  0  0  0  0  0
  102.5790   88.2940   93.6620 H   0  0  0  0  0  0  0  0  0  0  0  0
  104.8180   88.5040   92.6490 H   0  0  0  0  0  0  0  0  0  0  0  0
  106.7100   87.2100   93.5610 H   0  0  0  0  0  0  0  0  0  0  0  0
  107.5600   86.1270   95.7580 H   0  0  0  0  0  0  0  0  0  0  0  0
  106.4200   85.0760   96.6160 H   0  0  0  0  0  0  0  0  0  0  0  0
   96.4500  119.9070   92.4890 N   0  0  0  0  0  0  0  0  0  0  0  0
   95.5150  119.7730   91.5660 C   0  0  0  0  0  0  0  0  0  0  0  0
   94.2800  119.4470   91.8830 N   0  0  0  0  0  0  0  0  0  0  0  0
   93.9010  119.2390   93.1680 C   0  0  0  0  0  0  0  0  0  0  0  0
   94.8390  119.3710   94.1420 C   0  0  0  0  0  0  0  0  0  0  0  0
   96.1660  119.7210   93.7670 C   0  0  0  0  0  0  0  0  0  0  0  0
   94.2260  119.1150   95.3150 N   0  0  0  0  0  0  0  0  0  0  0  0
   92.9440  118.8320   95.0870 C   0  0  0  0  0  0  0  0  0  0  0  0
   97.5450  118.7720   95.6390 C   0  0  0  0  0  0  0  0  0  0  0  0
   92.7290  118.9040   93.7740 N   0  0  0  0  0  0  0  0  0  0  0  0
   98.7160  117.9750   95.0730 C   0  0  0  0  0  0  0  0  0  0  0  0
   97.2090  119.8750   94.7620 N   0  0  0  0  0  0  0  0  0  0  0  0
   99.9750  118.1030   95.6300 C   0  0  0  0  0  0  0  0  0  0  0  0
  101.0350  117.3780   95.1120 C   0  0  0  0  0  0  0  0  0  0  0  0
  100.8330  116.5250   94.0410 C   0  0  0  0  0  0  0  0  0  0  0  0
   99.5710  116.3950   93.4860 C   0  0  0  0  0  0  0  0  0  0  0  0
   98.5130  117.1200   94.0040 C   0  0  0  0  0  0  0  0  0  0  0  0
   95.7700  119.9300   90.5250 H   0  0  0  0  0  0  0  0  0  0  0  0
   92.2040  118.5850   95.8370 H   0  0  0  0  0  0  0  0  0  0  0  0
   97.6970  120.7460   94.8440 H   0  0  0  0  0  0  0  0  0  0  0  0
  100.1320  118.7710   96.4670 H   0  0  0  0  0  0  0  0  0  0  0  0
  102.0220  117.4780   95.5460 H   0  0  0  0  0  0  0  0  0  0  0  0
  101.6610  115.9580   93.6370 H   0  0  0  0  0  0  0  0  0  0  0  0
   99.4130  115.7280   92.6470 H   0  0  0  0  0  0  0  0  0  0  0  0
   97.5250  117.0210   93.5690 H   0  0  0  0  0  0  0  0  0  0  0  0
   96.6860  118.1180   95.7450 H   0  0  0  0  0  0  0  0  0  0  0  0
   97.8240  119.1670   96.6100 H   0  0  0  0  0  0  0  0  0  0  0  0
  1  2  1  0  0  0  0
  2  3  2  0  0  0  0
  3  4  1  0  0  0  0
  4  5  2  0  0  0  0
  1  6  2  0  0  0  0
  5  6  1  0  0  0  0
  5  7  1  0  0  0  0
  7  8  2  0  0  0  0
  4 10  1  0  0  0  0
  8 10  1  0  0  0  0
  9 11  1  0  0  0  0
  6 12  1  0  0  0  0
  9 12  1  0  0  0  0
 11 13  1  0  0  0  0
 13 14  2  0  0  0  0
 14 15  1  0  0  0  0
 15 16  2  0  0  0  0
 11 17  2  0  0  0  0
 16 17  1  0  0  0  0
  2 18  1  0  0  0  0
  8 19  1  0  0  0  0
 12 20  1  0  0  0  0
 13 21  1  0  0  0  0
 14 22  1  0  0  0  0
 15 23  1  0  0  0  0
 16 24  1  0  0  0  0
 17 25  1  0  0  0  0
  9 26  1  0  0  0  0
  9 27  1  0  0  0  0
 28 29  1  0  0  0  0
 29 30  2  0  0  0  0
 30 31  1  0  0  0  0
 31 32  2  0  0  0  0
 28 33  2  0  0  0  0
 32 33  1  0  0  0  0
 32 34  1  0  0  0  0
 34 35  2  0  0  0  0
 31 37  1  0  0  0  0
 35 37  1  0  0  0  0
 36 38  1  0  0  0  0
 33 39  1  0  0  0  0
 36 39  1  0  0  0  0
 38 40  1  0  0  0  0
 40 41  2  0  0  0  0
 41 42  1  0  0  0  0
 42 43  2  0  0  0  0
 38 44  2  0  0  0  0
 43 44  1  0  0  0  0
 29 45  1  0  0  0  0
 35 46  1  0  0  0  0
 39 47  1  0  0  0  0
 40 48  1  0  0  0  0
 41 49  1  0  0  0  0
 42 50  1  0  0  0  0
 43 51  1  0  0  0  0
 44 52  1  0  0  0  0
 36 53  1  0  0  0  0
 36 54  1  0  0  0  0
M  END
$$$$
