6XCG
  PyMOL3.1          3D                             0

 33 37  0  0  0  0  0  0  0  0999 V2000
   14.2430   14.6070   14.7670 N   0  0  0  0  0  0  0  0  0  0  0  0
   15.5550   14.7680   15.0400 C   0  0  0  0  0  0  0  0  0  0  0  0
   16.2360   15.5170   14.3490 O   0  0  0  0  0  0  0  0  0  0  0  0
   13.3680   13.6900   15.5120 C   0  0  0  0  0  0  0  0  0  0  0  0
   12.2100   21.4320   15.7320 N   0  0  0  0  0  0  0  0  0  0  0  0
   10.7150   21.0410   14.0550 O   0  0  0  0  0  0  0  0  0  0  0  0
   12.7260   12.6060   14.7320 C   0  0  0  0  0  0  0  0  0  0  0  0
   11.0010   25.0380   17.3530 N   0  0  0  0  0  0  0  0  0  0  0  0
   15.6080   13.7500   19.8220 O   0  0  0  0  0  0  0  0  0  0  0  0
   13.7790   12.2800   15.7320 C   0  0  0  0  0  0  0  0  0  0  0  0
   12.6370   23.3260   16.9590 N   0  0  0  0  0  0  0  0  0  0  0  0
   17.9850   11.8930   21.8290 O   0  0  0  0  0  0  0  0  0  0  0  0
   13.6350   15.3380   13.6450 C   0  0  0  0  0  0  0  0  0  0  0  0
   17.9890   12.3580   19.6050 N   0  0  0  0  0  0  0  0  0  0  0  0
   13.1320   16.7160   14.0130 C   0  0  0  0  0  0  0  0  0  0  0  0
   12.3470   17.4160   13.1070 C   0  0  0  0  0  0  0  0  0  0  0  0
   11.9310   18.7060   13.3720 C   0  0  0  0  0  0  0  0  0  0  0  0
   12.2740   19.3330   14.5610 C   0  0  0  0  0  0  0  0  0  0  0  0
   11.6430   20.6660   14.7810 C   0  0  0  0  0  0  0  0  0  0  0  0
   11.7220   22.6280   16.2870 C   0  0  0  0  0  0  0  0  0  0  0  0
   10.4290   23.0980   16.0910 C   0  0  0  0  0  0  0  0  0  0  0  0
   10.1180   24.3080   16.6650 C   0  0  0  0  0  0  0  0  0  0  0  0
   12.2170   24.5030   17.4460 C   0  0  0  0  0  0  0  0  0  0  0  0
   13.0700   18.6430   15.4680 C   0  0  0  0  0  0  0  0  0  0  0  0
   13.4720   17.3400   15.2020 C   0  0  0  0  0  0  0  0  0  0  0  0
   16.1570   14.0840   16.2460 C   0  0  0  0  0  0  0  0  0  0  0  0
   15.5430   14.1360   17.4980 C   0  0  0  0  0  0  0  0  0  0  0  0
   16.1770   13.5700   18.5950 C   0  0  0  0  0  0  0  0  0  0  0  0
   16.0120   12.9090   20.8850 C   0  0  0  0  0  0  0  0  0  0  0  0
   17.4070   12.3360   20.8250 C   0  0  0  0  0  0  0  0  0  0  0  0
   17.4100   12.9300   18.4660 C   0  0  0  0  0  0  0  0  0  0  0  0
   18.0070   12.8500   17.2170 C   0  0  0  0  0  0  0  0  0  0  0  0
   17.3840   13.4270   16.1180 C   0  0  0  0  0  0  0  0  0  0  0  0
  1  2  1  0  0  0  0
  2  3  2  0  0  0  0
  1  4  1  0  0  0  0
  4  7  1  0  0  0  0
  4 10  1  0  0  0  0
  7 10  1  0  0  0  0
  1 13  1  0  0  0  0
 13 15  1  0  0  0  0
 15 16  1  0  0  0  0
 16 17  2  0  0  0  0
 17 18  1  0  0  0  0
  5 19  1  0  0  0  0
  6 19  2  0  0  0  0
 18 19  1  0  0  0  0
  5 20  1  0  0  0  0
 11 20  1  0  0  0  0
 20 21  2  0  0  0  0
  8 22  2  0  0  0  0
 21 22  1  0  0  0  0
  8 23  1  0  0  0  0
 11 23  2  0  0  0  0
 18 24  2  0  0  0  0
 15 25  2  0  0  0  0
 24 25  1  0  0  0  0
  2 26  1  0  0  0  0
 26 27  1  0  0  0  0
  9 28  1  0  0  0  0
 27 28  2  0  0  0  0
  9 29  1  0  0  0  0
 12 30  2  0  0  0  0
 14 30  1  0  0  0  0
 29 30  1  0  0  0  0
 14 31  1  0  0  0  0
 28 31  1  0  0  0  0
 31 32  2  0  0  0  0
 26 33  2  0  0  0  0
 32 33  1  0  0  0  0
M  END
$$$$
