8JS8
  PyMOL3.1          3D                             0

 12 12  0  0  0  0  0  0  0  0999 V2000
  126.7340  121.2170  141.1400 C   0  0  0  0  0  0  0  0  0  0  0  0
  126.2340  121.7970  142.3070 N   0  0  0  0  0  0  0  0  0  0  0  0
  127.7110  121.6080  140.5310 O   0  0  0  0  0  0  0  0  0  0  0  0
  125.8780  120.0350  140.7570 C   0  0  0  0  0  0  0  0  0  0  0  0
  129.2470  122.9770  143.4620 N   0  0  0  0  0  0  0  0  0  0  0  0
  127.9160  121.7110  144.7470 O   0  0  0  0  0  0  0  0  0  0  0  0
  124.7250  120.0030  141.7450 C   0  0  0  0  0  0  0  0  0  0  0  0
  125.0390  121.0800  142.7960 C   0  0  0  0  0  0  0  0  0  0  0  0
  127.9960  122.4880  143.8190 C   0  0  0  0  0  0  0  0  0  0  0  0
  126.7760  122.9570  143.0090 C   0  0  0  0  0  0  0  0  0  0  0  0
  125.7620  123.5720  144.0040 C   0  0  0  0  0  0  0  0  0  0  0  0
  125.8900  125.0770  144.1440 C   0  0  0  0  0  0  0  0  0  0  0  0
  1  2  1  0  0  0  0
  1  3  2  0  0  0  0
  1  4  1  0  0  0  0
  4  7  1  0  0  0  0
  2  8  1  0  0  0  0
  7  8  1  0  0  0  0
  5  9  1  0  0  0  0
  6  9  2  0  0  0  0
  2 10  1  0  0  0  0
  9 10  1  0  0  0  0
 10 11  1  0  0  0  0
 11 12  1  0  0  0  0
M  END
$$$$
