7UL2
  PyMOL3.1          3D                             0

 42 48  0  0  0  0  0  0  0  0999 V2000
  151.3870  142.8890  121.8760 N   0  0  0  0  0  0  0  0  0  0  0  0
  151.8480  142.3680  123.0310 C   0  0  0  0  0  0  0  0  0  0  0  0
  151.1540  142.2550  124.0430 O   0  0  0  0  0  0  0  0  0  0  0  0
  159.0500  135.4920  121.2450 Cl  0  0  0  0  0  0  0  0  0  0  0  0
  150.0180  143.3250  121.5650 C   0  0  0  0  0  0  0  0  0  0  0  0
  153.7970  141.4360  121.9080 N   0  0  0  0  0  0  0  0  0  0  0  0
  148.5050  141.7930  122.5470 O   0  0  0  0  0  0  0  0  0  0  0  0
  149.2430  142.0150  121.6330 C   0  0  0  0  0  0  0  0  0  0  0  0
  155.0580  141.0810  122.1990 N   0  0  0  0  0  0  0  0  0  0  0  0
  149.3510  141.2070  120.7600 O   0  0  0  0  0  0  0  0  0  0  0  0
  149.3930  144.3910  122.5080 C   0  0  0  0  0  0  0  0  0  0  0  0
  157.9780  140.0270  119.3260 N   0  0  0  0  0  0  0  0  0  0  0  0
  155.7840  139.2550  125.2850 O   0  0  0  0  0  0  0  0  0  0  0  0
  150.1940  145.6880  122.3760 C   0  0  0  0  0  0  0  0  0  0  0  0
  157.4850  142.9130  122.8650 O   0  0  0  0  0  0  0  0  0  0  0  0
  150.0710  146.2220  120.9470 C   0  0  0  0  0  0  0  0  0  0  0  0
  150.6900  145.1990  119.9890 C   0  0  0  0  0  0  0  0  0  0  0  0
  149.9170  143.8800  120.1090 C   0  0  0  0  0  0  0  0  0  0  0  0
  148.4430  144.1180  119.7360 C   0  0  0  0  0  0  0  0  0  0  0  0
  148.5890  146.4580  120.6100 C   0  0  0  0  0  0  0  0  0  0  0  0
  147.8150  145.1370  120.6960 C   0  0  0  0  0  0  0  0  0  0  0  0
  147.9130  144.6330  122.1440 C   0  0  0  0  0  0  0  0  0  0  0  0
  153.2730  141.9580  123.0140 C   0  0  0  0  0  0  0  0  0  0  0  0
  155.3460  141.3870  123.4950 C   0  0  0  0  0  0  0  0  0  0  0  0
  156.6720  141.0990  124.0810 C   0  0  0  0  0  0  0  0  0  0  0  0
  156.8840  140.0090  124.9710 C   0  0  0  0  0  0  0  0  0  0  0  0
  155.8510  138.1160  126.1490 C   0  0  0  0  0  0  0  0  0  0  0  0
  158.1560  139.7790  125.5010 C   0  0  0  0  0  0  0  0  0  0  0  0
  159.2030  140.5980  125.1490 C   0  0  0  0  0  0  0  0  0  0  0  0
  159.0270  141.6510  124.2770 C   0  0  0  0  0  0  0  0  0  0  0  0
  157.7710  141.9040  123.7320 C   0  0  0  0  0  0  0  0  0  0  0  0
  158.5200  143.7190  122.3460 C   0  0  0  0  0  0  0  0  0  0  0  0
  154.2010  141.9100  124.0490 C   0  0  0  0  0  0  0  0  0  0  0  0
  156.0040  140.5900  121.2520 C   0  0  0  0  0  0  0  0  0  0  0  0
  156.7260  139.3690  121.3230 C   0  0  0  0  0  0  0  0  0  0  0  0
  156.4890  138.3710  122.2970 C   0  0  0  0  0  0  0  0  0  0  0  0
  157.1870  137.2080  122.2810 C   0  0  0  0  0  0  0  0  0  0  0  0
  158.1520  136.9810  121.2890 C   0  0  0  0  0  0  0  0  0  0  0  0
  158.3940  137.9090  120.3230 C   0  0  0  0  0  0  0  0  0  0  0  0
  157.6930  139.1260  120.3130 C   0  0  0  0  0  0  0  0  0  0  0  0
  157.3190  141.1680  119.3330 C   0  0  0  0  0  0  0  0  0  0  0  0
  156.3450  141.4840  120.2800 C   0  0  0  0  0  0  0  0  0  0  0  0
  1  2  1  0  0  0  0
  2  3  2  0  0  0  0
  1  5  1  0  0  0  0
  5  8  1  0  0  0  0
  7  8  1  0  0  0  0
  6  9  1  0  0  0  0
  8 10  2  0  0  0  0
  5 11  1  0  0  0  0
 11 14  1  0  0  0  0
 14 16  1  0  0  0  0
 16 17  1  0  0  0  0
  5 18  1  0  0  0  0
 17 18  1  0  0  0  0
 18 19  1  0  0  0  0
 16 20  1  0  0  0  0
 19 21  1  0  0  0  0
 20 21  1  0  0  0  0
 11 22  1  0  0  0  0
 21 22  1  0  0  0  0
  2 23  1  0  0  0  0
  6 23  2  0  0  0  0
  9 24  1  0  0  0  0
 24 25  1  0  0  0  0
 13 26  1  0  0  0  0
 25 26  1  0  0  0  0
 13 27  1  0  0  0  0
 26 28  2  0  0  0  0
 28 29  1  0  0  0  0
 29 30  2  0  0  0  0
 15 31  1  0  0  0  0
 25 31  2  0  0  0  0
 30 31  1  0  0  0  0
 15 32  1  0  0  0  0
 23 33  1  0  0  0  0
 24 33  2  0  0  0  0
  9 34  1  0  0  0  0
 34 35  2  0  0  0  0
 35 36  1  0  0  0  0
 36 37  2  0  0  0  0
  4 38  1  0  0  0  0
 37 38  1  0  0  0  0
 38 39  2  0  0  0  0
 12 40  2  0  0  0  0
 35 40  1  0  0  0  0
 39 40  1  0  0  0  0
 12 41  1  0  0  0  0
 34 42  1  0  0  0  0
 41 42  2  0  0  0  0
M  END
$$$$
