9GU4
  PyMOL3.1          3D                             0

 27 29  0  0  0  0  0  0  0  0999 V2000
   18.3280   35.5490   -5.9850 C   0  0  0  0  0  0  0  0  0  0  0  0
   18.7170   34.2870   -5.3310 C   0  0  0  0  0  0  0  0  0  0  0  0
   19.4550   33.3270   -6.0190 C   0  0  0  0  0  0  0  0  0  0  0  0
   19.7870   32.1410   -5.3700 C   0  0  0  0  0  0  0  0  0  0  0  0
   19.3810   31.9150   -4.0580 C   0  0  0  0  0  0  0  0  0  0  0  0
   18.6350   32.8750   -3.3860 C   0  0  0  0  0  0  0  0  0  0  0  0
   18.3010   34.0620   -4.0250 C   0  0  0  0  0  0  0  0  0  0  0  0
   17.5550   35.0360   -3.3770 O   0  0  0  0  0  0  0  0  0  0  0  0
   19.9150   33.5540   -7.4610 C   0  0  0  0  0  0  0  0  0  0  0  0
   17.2150   35.5180   -6.7180 N   0  0  0  0  0  0  0  0  0  0  0  0
   16.7640   36.5940   -7.3600 N   0  0  0  0  0  0  0  0  0  0  0  0
   17.3870   37.7710   -7.3070 C   0  0  0  0  0  0  0  0  0  0  0  0
   18.5600   37.8600   -6.5510 C   0  0  0  0  0  0  0  0  0  0  0  0
   19.0380   36.7360   -5.8790 C   0  0  0  0  0  0  0  0  0  0  0  0
   16.8140   38.7740   -8.0080 N   0  0  0  0  0  0  0  0  0  0  0  0
   15.6710   38.5640   -8.8890 C   0  0  0  0  0  0  0  0  0  0  0  0
   14.3630   38.5010   -8.0670 C   0  0  0  0  0  0  0  0  0  0  0  0
   13.2030   38.2910   -8.9540 N   0  0  0  0  0  0  0  0  0  0  0  0
   13.0570   39.4390   -9.8730 C   0  0  0  0  0  0  0  0  0  0  0  0
   14.3120   39.5500  -10.7630 C   0  0  0  0  0  0  0  0  0  0  0  0
   15.5640   39.7370   -9.8850 C   0  0  0  0  0  0  0  0  0  0  0  0
   11.9840   37.9310   -8.1930 C   0  0  0  0  0  0  0  0  0  0  0  0
   11.4890   39.1170   -7.3420 C   0  0  0  0  0  0  0  0  0  0  0  0
   19.7530   30.6050   -3.3850 C   0  0  0  0  0  0  0  0  0  0  0  0
   19.8400   30.7420   -2.0460 F   0  0  0  0  0  0  0  0  0  0  0  0
   18.7910   29.7040   -3.6590 F   0  0  0  0  0  0  0  0  0  0  0  0
   20.9250   30.1460   -3.8650 F   0  0  0  0  0  0  0  0  0  0  0  0
  1  2  1  0  0  0  0
  2  3  1  0  0  0  0
  3  4  2  0  0  0  0
  4  5  1  0  0  0  0
  5  6  2  0  0  0  0
  2  7  2  0  0  0  0
  6  7  1  0  0  0  0
  7  8  1  0  0  0  0
  3  9  1  0  0  0  0
  1 10  1  0  0  0  0
 10 11  2  0  0  0  0
 11 12  1  0  0  0  0
 12 13  2  0  0  0  0
  1 14  2  0  0  0  0
 13 14  1  0  0  0  0
 12 15  1  0  0  0  0
 15 16  1  0  0  0  0
 16 17  1  0  0  0  0
 17 18  1  0  0  0  0
 18 19  1  0  0  0  0
 19 20  1  0  0  0  0
 16 21  1  0  0  0  0
 20 21  1  0  0  0  0
 18 22  1  0  0  0  0
 22 23  1  0  0  0  0
  5 24  1  0  0  0  0
 24 25  1  0  0  0  0
 24 26  1  0  0  0  0
 24 27  1  0  0  0  0
M  END
$$$$
