8GDL
  PyMOL3.1          3D                             0

 13 14  0  0  0  0  0  0  0  0999 V2000
   -5.6140  -10.3540    7.0940 C   0  0  0  0  0  0  0  0  0  0  0  0
   -4.6280   -9.1950    6.8860 C   0  0  0  0  0  0  0  0  0  0  0  0
   -4.8180   -8.2120    8.0330 C   0  0  0  0  0  0  0  0  0  0  0  0
   -5.4760   -7.0070    7.8570 C   0  0  0  0  0  0  0  0  0  0  0  0
   -4.4760   -8.3200    9.3340 C   0  0  0  0  0  0  0  0  0  0  0  0
   -4.8770   -7.1860    9.9890 C   0  0  0  0  0  0  0  0  0  0  0  0
   -3.8050   -9.3420   10.0100 C   0  0  0  0  0  0  0  0  0  0  0  0
   -5.4860   -6.3790    9.0670 N   0  0  0  0  0  0  0  0  0  0  0  0
   -4.6360   -7.0470   11.3660 C   0  0  0  0  0  0  0  0  0  0  0  0
   -3.5600   -9.2010   11.3620 C   0  0  0  0  0  0  0  0  0  0  0  0
   -5.4570  -11.2950    5.9830 N   0  0  0  0  0  0  0  0  0  0  0  0
   -3.9610   -8.0520   12.0430 C   0  0  0  0  0  0  0  0  0  0  0  0
   -2.9070  -10.1920   12.0880 O   0  0  0  0  0  0  0  0  0  0  0  0
  1  2  1  0  0  0  0
  2  3  1  0  0  0  0
  3  4  2  0  0  0  0
  3  5  1  0  0  0  0
  5  6  2  0  0  0  0
  5  7  1  0  0  0  0
  4  8  1  0  0  0  0
  6  8  1  0  0  0  0
  6  9  1  0  0  0  0
  7 10  2  0  0  0  0
  1 11  1  0  0  0  0
  9 12  2  0  0  0  0
 10 12  1  0  0  0  0
 10 13  1  0  0  0  0
M  END
$$$$
