9B1G
  PyMOL3.1          3D                             0

 22 24  0  0  0  0  0  0  0  0999 V2000
  122.4980  120.0580  123.5740 Cl  0  0  0  0  0  0  0  0  0  0  0  0
  120.1390  124.9660  122.8610 Cl  0  0  0  0  0  0  0  0  0  0  0  0
  124.8600  122.2800  119.2890 C   0  0  0  0  0  0  0  0  0  0  0  0
  123.6390  122.2500  118.3810 N   0  0  0  0  0  0  0  0  0  0  0  0
  124.1710  122.1430  116.7960 C   0  0  0  0  0  0  0  0  0  0  0  0
  123.5160  121.8430  115.6160 C   0  0  0  0  0  0  0  0  0  0  0  0
  124.2300  121.8180  114.3990 C   0  0  0  0  0  0  0  0  0  0  0  0
  125.6360  122.1010  114.3900 C   0  0  0  0  0  0  0  0  0  0  0  0
  126.3150  122.4050  115.5890 C   0  0  0  0  0  0  0  0  0  0  0  0
  125.6130  122.4320  116.7770 C   0  0  0  0  0  0  0  0  0  0  0  0
  126.1070  122.7490  118.3260 S   0  0  0  0  0  0  0  0  0  0  0  0
  127.2550  121.9010  118.6450 O   0  0  0  0  0  0  0  0  0  0  0  0
  126.2660  124.1980  118.4300 O   0  0  0  0  0  0  0  0  0  0  0  0
  122.2560  122.2990  118.8220 C   0  0  0  0  0  0  0  0  0  0  0  0
  121.3910  122.2780  118.0160 O   0  0  0  0  0  0  0  0  0  0  0  0
  121.9280  122.3870  120.3160 C   0  0  0  0  0  0  0  0  0  0  0  0
  121.2720  123.4870  120.8380 C   0  0  0  0  0  0  0  0  0  0  0  0
  120.9860  123.5460  122.1940 C   0  0  0  0  0  0  0  0  0  0  0  0
  121.3540  122.5100  123.0310 C   0  0  0  0  0  0  0  0  0  0  0  0
  122.0110  121.4070  122.5130 C   0  0  0  0  0  0  0  0  0  0  0  0
  122.2950  121.3500  121.1570 C   0  0  0  0  0  0  0  0  0  0  0  0
  121.0560  122.5920  124.4000 O   0  0  0  0  0  0  0  0  0  0  0  0
  3  4  1  0  0  0  0
  4  5  1  0  0  0  0
  5  6  2  0  0  0  0
  6  7  1  0  0  0  0
  7  8  2  0  0  0  0
  8  9  1  0  0  0  0
  5 10  1  0  0  0  0
  9 10  2  0  0  0  0
  3 11  1  0  0  0  0
 10 11  1  0  0  0  0
 11 12  2  0  0  0  0
 11 13  2  0  0  0  0
  4 14  1  0  0  0  0
 14 15  2  0  0  0  0
 14 16  1  0  0  0  0
 16 17  2  0  0  0  0
  2 18  1  0  0  0  0
 17 18  1  0  0  0  0
 18 19  2  0  0  0  0
  1 20  1  0  0  0  0
 19 20  1  0  0  0  0
 16 21  1  0  0  0  0
 20 21  2  0  0  0  0
 19 22  1  0  0  0  0
M  END
$$$$
