7UM4
  PyMOL3.1          3D                             0

 26 28  0  0  0  0  0  0  0  0999 V2000
  -13.4180    7.5000    9.3440 N   0  0  0  0  0  0  0  0  0  0  0  0
  -14.7320    8.0130    9.6560 C   0  0  0  0  0  0  0  0  0  0  0  0
  -15.4140    7.6180   10.8740 N   0  0  0  0  0  0  0  0  0  0  0  0
  -15.2560    8.8030    8.8610 N   0  0  0  0  0  0  0  0  0  0  0  0
  -16.5620    9.3670    9.0850 C   0  0  0  0  0  0  0  0  0  0  0  0
  -17.1900    9.0960   10.0490 O   0  0  0  0  0  0  0  0  0  0  0  0
  -17.1140   10.2720    8.1060 N   0  0  0  0  0  0  0  0  0  0  0  0
  -16.3820   10.6460    6.8940 C   0  0  0  0  0  0  0  0  0  0  0  0
  -17.2370   10.9560    5.6670 C   0  0  0  0  0  0  0  0  0  0  0  0
  -18.3950   11.8800    6.0570 C   0  0  0  0  0  0  0  0  0  0  0  0
  -18.8790   12.7960    5.0880 C   0  0  0  0  0  0  0  0  0  0  0  0
  -19.9240   13.6370    5.4260 C   0  0  0  0  0  0  0  0  0  0  0  0
  -20.4800   13.5720    6.6910 C   0  0  0  0  0  0  0  0  0  0  0  0
  -20.0080   12.6730    7.6350 C   0  0  0  0  0  0  0  0  0  0  0  0
  -20.5720   12.6240    8.9190 C   0  0  0  0  0  0  0  0  0  0  0  0
  -21.3660   11.5590    9.3810 C   0  0  0  0  0  0  0  0  0  0  0  0
  -21.8900   11.5870   10.6580 C   0  0  0  0  0  0  0  0  0  0  0  0
  -21.6430   12.6690   11.4840 C   0  0  0  0  0  0  0  0  0  0  0  0
  -20.8660   13.7280   11.0460 C   0  0  0  0  0  0  0  0  0  0  0  0
  -20.3310   13.7030    9.7650 C   0  0  0  0  0  0  0  0  0  0  0  0
  -18.9320   11.8240    7.2840 C   0  0  0  0  0  0  0  0  0  0  0  0
  -18.4250   10.8440    8.3340 C   0  0  0  0  0  0  0  0  0  0  0  0
  -18.3000   12.8300    3.8430 F   0  0  0  0  0  0  0  0  0  0  0  0
  -21.6370   10.4580    8.6230 F   0  0  0  0  0  0  0  0  0  0  0  0
  -22.1710   12.6760   12.7380 F   0  0  0  0  0  0  0  0  0  0  0  0
  -19.5690   14.7500    9.3300 F   0  0  0  0  0  0  0  0  0  0  0  0
  1  2  1  0  0  0  0
  2  3  1  0  0  0  0
  2  4  2  0  0  0  0
  4  5  1  0  0  0  0
  5  6  2  0  0  0  0
  5  7  1  0  0  0  0
  7  8  1  0  0  0  0
  8  9  1  0  0  0  0
  9 10  1  0  0  0  0
 10 11  1  0  0  0  0
 11 12  2  0  0  0  0
 12 13  1  0  0  0  0
 13 14  2  0  0  0  0
 14 15  1  0  0  0  0
 15 16  2  0  0  0  0
 16 17  1  0  0  0  0
 17 18  2  0  0  0  0
 18 19  1  0  0  0  0
 15 20  1  0  0  0  0
 19 20  2  0  0  0  0
 10 21  2  0  0  0  0
 14 21  1  0  0  0  0
  7 22  1  0  0  0  0
 21 22  1  0  0  0  0
 11 23  1  0  0  0  0
 16 24  1  0  0  0  0
 18 25  1  0  0  0  0
 20 26  1  0  0  0  0
M  END
$$$$
