8VW5
  PyMOL3.1          3D                             0

 88 92  0  0  0  0  0  0  0  0999 V2000
    5.7760   -9.4550   46.8930 N   0  0  0  0  0  0  0  0  0  0  0  0
    2.5610  -10.2580   47.0790 C   0  0  0  0  0  0  0  0  0  0  0  0
    4.3420   -7.7250   47.2830 O   0  0  0  0  0  0  0  0  0  0  0  0
    3.5970   -9.7160   46.1030 C   0  0  0  0  0  0  0  0  0  0  0  0
    4.4660  -10.7670   45.5660 N   0  0  0  0  0  0  0  0  0  0  0  0
    5.0010  -12.2450   43.9490 O   0  0  0  0  0  0  0  0  0  0  0  0
    4.5900   -8.8210   46.8220 C   0  0  0  0  0  0  0  0  0  0  0  0
    5.2000  -14.3060   49.2980 N   0  0  0  0  0  0  0  0  0  0  0  0
    2.5090  -14.2340   44.7510 O   0  0  0  0  0  0  0  0  0  0  0  0
    5.8420  -10.6370   46.0360 C   0  0  0  0  0  0  0  0  0  0  0  0
   -0.7590  -13.3300   46.9290 O   0  0  0  0  0  0  0  0  0  0  0  0
    4.1620  -11.5490   44.4970 C   0  0  0  0  0  0  0  0  0  0  0  0
    0.3280  -12.3890   48.6170 O   0  0  0  0  0  0  0  0  0  0  0  0
    2.7170  -11.5700   44.0400 C   0  0  0  0  0  0  0  0  0  0  0  0
    0.0590  -16.2320   48.3200 O   0  0  0  0  0  0  0  0  0  0  0  0
    2.5270  -12.6480   42.9900 C   0  0  0  0  0  0  0  0  0  0  0  0
    2.4390  -11.0420   41.2370 O   0  0  0  0  0  0  0  0  0  0  0  0
    2.4290  -12.3750   41.5960 C   0  0  0  0  0  0  0  0  0  0  0  0
    8.4560  -11.7620   45.5620 O   0  0  0  0  0  0  0  0  0  0  0  0
    2.2840  -13.4120   40.6880 C   0  0  0  0  0  0  0  0  0  0  0  0
   10.9890  -12.8560   43.3430 O   0  0  0  0  0  0  0  0  0  0  0  0
    2.2060  -14.7220   41.1220 C   0  0  0  0  0  0  0  0  0  0  0  0
   10.8450  -11.4140   45.0350 O   0  0  0  0  0  0  0  0  0  0  0  0
    2.2730  -15.0490   42.4670 C   0  0  0  0  0  0  0  0  0  0  0  0
    9.3840  -13.9280   46.8390 O   0  0  0  0  0  0  0  0  0  0  0  0
    2.4450  -13.9930   43.3840 C   0  0  0  0  0  0  0  0  0  0  0  0
    4.0800  -13.8580   49.4750 O   0  0  0  0  0  0  0  0  0  0  0  0
    1.7910  -15.3260   45.2200 C   0  0  0  0  0  0  0  0  0  0  0  0
    5.6270  -15.3060   49.8540 O   0  0  0  0  0  0  0  0  0  0  0  0
    1.5700  -16.4450   44.3960 C   0  0  0  0  0  0  0  0  0  0  0  0
    0.8470  -17.4970   44.9330 C   0  0  0  0  0  0  0  0  0  0  0  0
    0.3470  -17.4580   46.2230 C   0  0  0  0  0  0  0  0  0  0  0  0
    0.5550  -16.3510   47.0310 C   0  0  0  0  0  0  0  0  0  0  0  0
    1.2970  -15.2390   46.5350 C   0  0  0  0  0  0  0  0  0  0  0  0
    1.5090  -13.9660   47.3310 C   0  0  0  0  0  0  0  0  0  0  0  0
    0.2470  -13.1880   47.5890 C   0  0  0  0  0  0  0  0  0  0  0  0
   -0.6930  -17.3660   48.9500 C   0  0  0  0  0  0  0  0  0  0  0  0
    2.1160  -16.4810   42.9720 C   0  0  0  0  0  0  0  0  0  0  0  0
    3.4890  -17.1650   43.0160 C   0  0  0  0  0  0  0  0  0  0  0  0
    1.1830  -17.2890   42.0500 C   0  0  0  0  0  0  0  0  0  0  0  0
    2.3690  -10.6720   39.8020 C   0  0  0  0  0  0  0  0  0  0  0  0
    6.3730  -11.8850   46.7400 C   0  0  0  0  0  0  0  0  0  0  0  0
    5.5740  -12.5270   47.6720 C   0  0  0  0  0  0  0  0  0  0  0  0
    6.0670  -13.6300   48.3390 C   0  0  0  0  0  0  0  0  0  0  0  0
    7.3330  -14.1280   48.1280 C   0  0  0  0  0  0  0  0  0  0  0  0
    8.1300  -13.5050   47.1930 C   0  0  0  0  0  0  0  0  0  0  0  0
    7.6530  -12.3820   46.4980 C   0  0  0  0  0  0  0  0  0  0  0  0
    8.8990  -12.5710   44.4640 C   0  0  0  0  0  0  0  0  0  0  0  0
   10.3510  -12.2940   44.2070 C   0  0  0  0  0  0  0  0  0  0  0  0
   10.0070  -14.9500   47.6340 C   0  0  0  0  0  0  0  0  0  0  0  0
    7.0090   -8.8320   47.3870 C   0  0  0  0  0  0  0  0  0  0  0  0
    1.7680  -10.7970   46.5630 H   0  0  0  0  0  0  0  0  0  0  0  0
    2.0910   -9.4580   47.6480 H   0  0  0  0  0  0  0  0  0  0  0  0
    3.0070  -10.9460   47.7950 H   0  0  0  0  0  0  0  0  0  0  0  0
    3.1360   -9.1600   45.2880 H   0  0  0  0  0  0  0  0  0  0  0  0
    6.4650  -10.3900   45.1770 H   0  0  0  0  0  0  0  0  0  0  0  0
    2.4600  -10.5840   43.6560 H   0  0  0  0  0  0  0  0  0  0  0  0
    2.0810  -11.7370   44.9080 H   0  0  0  0  0  0  0  0  0  0  0  0
    2.2270  -13.2280   39.6160 H   0  0  0  0  0  0  0  0  0  0  0  0
    2.0890  -15.5070   40.3760 H   0  0  0  0  0  0  0  0  0  0  0  0
    0.6560  -18.3900   44.3390 H   0  0  0  0  0  0  0  0  0  0  0  0
   -0.2140  -18.3140   46.5930 H   0  0  0  0  0  0  0  0  0  0  0  0
    2.2170  -13.3150   46.8200 H   0  0  0  0  0  0  0  0  0  0  0  0
    1.9780  -14.1920   48.2870 H   0  0  0  0  0  0  0  0  0  0  0  0
   -0.5220  -11.8930   48.7490 H   0  0  0  0  0  0  0  0  0  0  0  0
   -1.0220  -17.2060   49.9750 H   0  0  0  0  0  0  0  0  0  0  0  0
   -0.1560  -18.3110   49.0220 H   0  0  0  0  0  0  0  0  0  0  0  0
   -1.6160  -17.6590   48.4520 H   0  0  0  0  0  0  0  0  0  0  0  0
    3.8570  -17.3390   42.0060 H   0  0  0  0  0  0  0  0  0  0  0  0
    3.4180  -18.1230   43.5290 H   0  0  0  0  0  0  0  0  0  0  0  0
    4.2060  -16.5390   43.5440 H   0  0  0  0  0  0  0  0  0  0  0  0
    1.5650  -17.3380   41.0310 H   0  0  0  0  0  0  0  0  0  0  0  0
    0.1870  -16.8510   41.9970 H   0  0  0  0  0  0  0  0  0  0  0  0
    1.0630  -18.3150   42.3950 H   0  0  0  0  0  0  0  0  0  0  0  0
    2.3290   -9.6000   39.6110 H   0  0  0  0  0  0  0  0  0  0  0  0
    1.5010  -11.0630   39.2740 H   0  0  0  0  0  0  0  0  0  0  0  0
    3.2130  -11.0120   39.2040 H   0  0  0  0  0  0  0  0  0  0  0  0
    4.5730  -12.1360   47.8490 H   0  0  0  0  0  0  0  0  0  0  0  0
    7.6860  -14.9910   48.6900 H   0  0  0  0  0  0  0  0  0  0  0  0
    8.3380  -12.3640   43.5540 H   0  0  0  0  0  0  0  0  0  0  0  0
    8.7770  -13.6340   44.6670 H   0  0  0  0  0  0  0  0  0  0  0  0
   10.1790  -11.0740   45.6890 H   0  0  0  0  0  0  0  0  0  0  0  0
   10.7890  -15.4510   47.0640 H   0  0  0  0  0  0  0  0  0  0  0  0
    9.2730  -15.6920   47.9410 H   0  0  0  0  0  0  0  0  0  0  0  0
   10.4550  -14.5160   48.5270 H   0  0  0  0  0  0  0  0  0  0  0  0
    7.6840   -9.5520   47.8480 H   0  0  0  0  0  0  0  0  0  0  0  0
    6.8170   -8.0680   48.1390 H   0  0  0  0  0  0  0  0  0  0  0  0
    7.5760   -8.3450   46.5950 H   0  0  0  0  0  0  0  0  0  0  0  0
  2  4  1  0  0  0  0
  4  5  1  0  0  0  0
  1  7  1  0  0  0  0
  3  7  2  0  0  0  0
  4  7  1  0  0  0  0
  1 10  1  0  0  0  0
  5 10  1  0  0  0  0
  5 12  1  0  0  0  0
  6 12  2  0  0  0  0
 12 14  1  0  0  0  0
 14 16  1  0  0  0  0
 16 18  2  0  0  0  0
 17 18  1  0  0  0  0
 18 20  1  0  0  0  0
 20 22  2  0  0  0  0
 22 24  1  0  0  0  0
  9 26  1  0  0  0  0
 16 26  1  0  0  0  0
 24 26  2  0  0  0  0
  8 27  2  0  0  0  0
  9 28  1  0  0  0  0
  8 29  1  0  0  0  0
 28 30  1  0  0  0  0
 30 31  2  0  0  0  0
 31 32  1  0  0  0  0
 15 33  1  0  0  0  0
 32 33  2  0  0  0  0
 28 34  2  0  0  0  0
 33 34  1  0  0  0  0
 34 35  1  0  0  0  0
 11 36  2  0  0  0  0
 13 36  1  0  0  0  0
 35 36  1  0  0  0  0
 15 37  1  0  0  0  0
 24 38  1  0  0  0  0
 30 38  1  0  0  0  0
 38 39  1  0  0  0  0
 38 40  1  0  0  0  0
 17 41  1  0  0  0  0
 10 42  1  0  0  0  0
 42 43  1  0  0  0  0
  8 44  1  0  0  0  0
 43 44  2  0  0  0  0
 44 45  1  0  0  0  0
 25 46  1  0  0  0  0
 45 46  2  0  0  0  0
 19 47  1  0  0  0  0
 42 47  2  0  0  0  0
 46 47  1  0  0  0  0
 19 48  1  0  0  0  0
 21 49  2  0  0  0  0
 23 49  1  0  0  0  0
 48 49  1  0  0  0  0
 25 50  1  0  0  0  0
  1 51  1  0  0  0  0
  2 52  1  0  0  0  0
  2 53  1  0  0  0  0
  2 54  1  0  0  0  0
  4 55  1  0  0  0  0
 10 56  1  0  0  0  0
 14 57  1  0  0  0  0
 14 58  1  0  0  0  0
 20 59  1  0  0  0  0
 22 60  1  0  0  0  0
 31 61  1  0  0  0  0
 32 62  1  0  0  0  0
 35 63  1  0  0  0  0
 35 64  1  0  0  0  0
 13 65  1  0  0  0  0
 37 66  1  0  0  0  0
 37 67  1  0  0  0  0
 37 68  1  0  0  0  0
 39 69  1  0  0  0  0
 39 70  1  0  0  0  0
 39 71  1  0  0  0  0
 40 72  1  0  0  0  0
 40 73  1  0  0  0  0
 40 74  1  0  0  0  0
 41 75  1  0  0  0  0
 41 76  1  0  0  0  0
 41 77  1  0  0  0  0
 43 78  1  0  0  0  0
 45 79  1  0  0  0  0
 48 80  1  0  0  0  0
 48 81  1  0  0  0  0
 23 82  1  0  0  0  0
 50 83  1  0  0  0  0
 50 84  1  0  0  0  0
 50 85  1  0  0  0  0
 51 86  1  0  0  0  0
 51 87  1  0  0  0  0
 51 88  1  0  0  0  0
M  END
$$$$
