8VW5
  PyMOL3.1          3D                             0

 88 92  0  0  0  0  0  0  0  0999 V2000
  -10.1510  -18.9200   22.4480 N   0  0  0  0  0  0  0  0  0  0  0  0
   -8.9380  -15.8180   22.9330 C   0  0  0  0  0  0  0  0  0  0  0  0
  -11.6510  -17.2120   22.6730 O   0  0  0  0  0  0  0  0  0  0  0  0
   -9.4320  -17.0600   23.6620 C   0  0  0  0  0  0  0  0  0  0  0  0
   -8.4420  -18.1360   23.7290 N   0  0  0  0  0  0  0  0  0  0  0  0
   -6.7640  -19.1920   24.8010 O   0  0  0  0  0  0  0  0  0  0  0  0
  -10.5620  -17.7130   22.8880 C   0  0  0  0  0  0  0  0  0  0  0  0
   -5.6860  -18.4370   19.3090 N   0  0  0  0  0  0  0  0  0  0  0  0
   -4.6350  -16.7460   24.3620 O   0  0  0  0  0  0  0  0  0  0  0  0
   -8.8720  -19.3400   23.0210 C   0  0  0  0  0  0  0  0  0  0  0  0
   -5.3040  -13.0160   23.0660 O   0  0  0  0  0  0  0  0  0  0  0  0
   -7.4430  -18.1900   24.6470 C   0  0  0  0  0  0  0  0  0  0  0  0
   -6.5260  -13.5630   21.2870 O   0  0  0  0  0  0  0  0  0  0  0  0
   -7.1710  -16.9320   25.4510 C   0  0  0  0  0  0  0  0  0  0  0  0
   -2.7200  -13.8900   21.0610 O   0  0  0  0  0  0  0  0  0  0  0  0
   -5.9350  -17.1290   26.3070 C   0  0  0  0  0  0  0  0  0  0  0  0
   -7.2440  -17.3740   28.2810 O   0  0  0  0  0  0  0  0  0  0  0  0
   -5.9870  -17.3950   27.7060 C   0  0  0  0  0  0  0  0  0  0  0  0
   -8.1180  -22.0880   22.7790 O   0  0  0  0  0  0  0  0  0  0  0  0
   -4.8180  -17.6050   28.4210 C   0  0  0  0  0  0  0  0  0  0  0  0
  -10.2810  -24.6420   21.5560 O   0  0  0  0  0  0  0  0  0  0  0  0
   -3.5850  -17.5330   27.7960 C   0  0  0  0  0  0  0  0  0  0  0  0
   -8.1300  -24.5530   22.1360 O   0  0  0  0  0  0  0  0  0  0  0  0
   -3.4710  -17.2590   26.4420 C   0  0  0  0  0  0  0  0  0  0  0  0
   -6.2760  -22.9670   21.0110 O   0  0  0  0  0  0  0  0  0  0  0  0
   -4.6620  -17.0620   25.7160 C   0  0  0  0  0  0  0  0  0  0  0  0
   -6.0250  -17.2650   19.3770 O   0  0  0  0  0  0  0  0  0  0  0  0
   -3.4950  -16.1380   23.8520 C   0  0  0  0  0  0  0  0  0  0  0  0
   -4.8230  -18.8470   18.5480 O   0  0  0  0  0  0  0  0  0  0  0  0
   -2.2480  -16.3090   24.4820 C   0  0  0  0  0  0  0  0  0  0  0  0
   -1.1630  -15.6610   23.9160 C   0  0  0  0  0  0  0  0  0  0  0  0
   -1.2870  -14.8650   22.7900 C   0  0  0  0  0  0  0  0  0  0  0  0
   -2.5180  -14.6880   22.1780 C   0  0  0  0  0  0  0  0  0  0  0  0
   -3.6700  -15.3390   22.7050 C   0  0  0  0  0  0  0  0  0  0  0  0
   -5.0510  -15.1930   22.0960 C   0  0  0  0  0  0  0  0  0  0  0  0
   -5.6410  -13.8160   22.2190 C   0  0  0  0  0  0  0  0  0  0  0  0
   -1.5600  -13.2200   20.3960 C   0  0  0  0  0  0  0  0  0  0  0  0
   -2.1170  -17.1590   25.7450 C   0  0  0  0  0  0  0  0  0  0  0  0
   -1.6730  -18.5700   25.3340 C   0  0  0  0  0  0  0  0  0  0  0  0
   -1.0600  -16.5680   26.6970 C   0  0  0  0  0  0  0  0  0  0  0  0
   -7.3880  -17.6470   29.7320 C   0  0  0  0  0  0  0  0  0  0  0  0
   -7.8530  -19.8320   22.0070 C   0  0  0  0  0  0  0  0  0  0  0  0
   -7.2400  -18.9350   21.1350 C   0  0  0  0  0  0  0  0  0  0  0  0
   -6.3230  -19.4000   20.2150 C   0  0  0  0  0  0  0  0  0  0  0  0
   -5.9790  -20.7290   20.1120 C   0  0  0  0  0  0  0  0  0  0  0  0
   -6.5650  -21.6290   20.9810 C   0  0  0  0  0  0  0  0  0  0  0  0
   -7.5040  -21.1830   21.9230 C   0  0  0  0  0  0  0  0  0  0  0  0
   -9.3930  -22.5800   22.3410 C   0  0  0  0  0  0  0  0  0  0  0  0
   -9.3170  -24.0310   21.9620 C   0  0  0  0  0  0  0  0  0  0  0  0
   -5.5660  -23.5360   19.8950 C   0  0  0  0  0  0  0  0  0  0  0  0
  -10.9950  -19.8340   21.6720 C   0  0  0  0  0  0  0  0  0  0  0  0
   -8.2870  -15.2160   23.5650 H   0  0  0  0  0  0  0  0  0  0  0  0
   -9.7640  -15.1810   22.6200 H   0  0  0  0  0  0  0  0  0  0  0  0
   -8.3720  -16.0760   22.0390 H   0  0  0  0  0  0  0  0  0  0  0  0
   -9.7680  -16.8220   24.6700 H   0  0  0  0  0  0  0  0  0  0  0  0
   -9.0840  -20.1210   23.7490 H   0  0  0  0  0  0  0  0  0  0  0  0
   -8.0490  -16.7110   26.0570 H   0  0  0  0  0  0  0  0  0  0  0  0
   -7.0550  -16.0970   24.7620 H   0  0  0  0  0  0  0  0  0  0  0  0
   -4.8340  -17.8300   29.4860 H   0  0  0  0  0  0  0  0  0  0  0  0
   -2.6910  -17.6990   28.3950 H   0  0  0  0  0  0  0  0  0  0  0  0
   -0.1720  -15.7680   24.3550 H   0  0  0  0  0  0  0  0  0  0  0  0
   -0.3980  -14.3780   22.3930 H   0  0  0  0  0  0  0  0  0  0  0  0
   -5.7390  -15.9040   22.5520 H   0  0  0  0  0  0  0  0  0  0  0  0
   -5.0280  -15.4650   21.0420 H   0  0  0  0  0  0  0  0  0  0  0  0
   -6.9020  -12.6500   21.3930 H   0  0  0  0  0  0  0  0  0  0  0  0
   -1.7850  -12.6810   19.4770 H   0  0  0  0  0  0  0  0  0  0  0  0
   -0.7450  -13.8730   20.0890 H   0  0  0  0  0  0  0  0  0  0  0  0
   -1.0440  -12.4650   20.9870 H   0  0  0  0  0  0  0  0  0  0  0  0
   -1.5630  -19.2020   26.2130 H   0  0  0  0  0  0  0  0  0  0  0  0
   -0.7170  -18.5280   24.8130 H   0  0  0  0  0  0  0  0  0  0  0  0
   -2.4110  -19.0200   24.6720 H   0  0  0  0  0  0  0  0  0  0  0  0
   -0.9310  -17.1800   27.5880 H   0  0  0  0  0  0  0  0  0  0  0  0
   -1.3320  -15.5680   27.0330 H   0  0  0  0  0  0  0  0  0  0  0  0
   -0.0840  -16.4900   26.2200 H   0  0  0  0  0  0  0  0  0  0  0  0
   -8.4030  -17.5450   30.1140 H   0  0  0  0  0  0  0  0  0  0  0  0
   -6.8000  -16.9960   30.3770 H   0  0  0  0  0  0  0  0  0  0  0  0
   -7.0950  -18.6510   30.0360 H   0  0  0  0  0  0  0  0  0  0  0  0
   -7.5080  -17.8820   21.2100 H   0  0  0  0  0  0  0  0  0  0  0  0
   -5.2600  -21.0530   19.3610 H   0  0  0  0  0  0  0  0  0  0  0  0
   -9.7590  -22.0250   21.4790 H   0  0  0  0  0  0  0  0  0  0  0  0
  -10.1480  -22.4750   23.1190 H   0  0  0  0  0  0  0  0  0  0  0  0
   -7.4640  -23.9070   22.4890 H   0  0  0  0  0  0  0  0  0  0  0  0
   -5.1540  -24.5080   20.1630 H   0  0  0  0  0  0  0  0  0  0  0  0
   -4.7470  -22.8840   19.5940 H   0  0  0  0  0  0  0  0  0  0  0  0
   -6.2350  -23.6660   19.0460 H   0  0  0  0  0  0  0  0  0  0  0  0
  -10.5070  -20.1820   20.7630 H   0  0  0  0  0  0  0  0  0  0  0  0
  -11.9300  -19.3720   21.3580 H   0  0  0  0  0  0  0  0  0  0  0  0
  -11.2690  -20.7260   22.2330 H   0  0  0  0  0  0  0  0  0  0  0  0
  2  4  1  0  0  0  0
  4  5  1  0  0  0  0
  1  7  1  0  0  0  0
  3  7  2  0  0  0  0
  4  7  1  0  0  0  0
  1 10  1  0  0  0  0
  5 10  1  0  0  0  0
  5 12  1  0  0  0  0
  6 12  2  0  0  0  0
 12 14  1  0  0  0  0
 14 16  1  0  0  0  0
 16 18  2  0  0  0  0
 17 18  1  0  0  0  0
 18 20  1  0  0  0  0
 20 22  2  0  0  0  0
 22 24  1  0  0  0  0
  9 26  1  0  0  0  0
 16 26  1  0  0  0  0
 24 26  2  0  0  0  0
  8 27  2  0  0  0  0
  9 28  1  0  0  0  0
  8 29  1  0  0  0  0
 28 30  1  0  0  0  0
 30 31  2  0  0  0  0
 31 32  1  0  0  0  0
 15 33  1  0  0  0  0
 32 33  2  0  0  0  0
 28 34  2  0  0  0  0
 33 34  1  0  0  0  0
 34 35  1  0  0  0  0
 11 36  2  0  0  0  0
 13 36  1  0  0  0  0
 35 36  1  0  0  0  0
 15 37  1  0  0  0  0
 24 38  1  0  0  0  0
 30 38  1  0  0  0  0
 38 39  1  0  0  0  0
 38 40  1  0  0  0  0
 17 41  1  0  0  0  0
 10 42  1  0  0  0  0
 42 43  1  0  0  0  0
  8 44  1  0  0  0  0
 43 44  2  0  0  0  0
 44 45  1  0  0  0  0
 25 46  1  0  0  0  0
 45 46  2  0  0  0  0
 19 47  1  0  0  0  0
 42 47  2  0  0  0  0
 46 47  1  0  0  0  0
 19 48  1  0  0  0  0
 21 49  2  0  0  0  0
 23 49  1  0  0  0  0
 48 49  1  0  0  0  0
 25 50  1  0  0  0  0
  1 51  1  0  0  0  0
  2 52  1  0  0  0  0
  2 53  1  0  0  0  0
  2 54  1  0  0  0  0
  4 55  1  0  0  0  0
 10 56  1  0  0  0  0
 14 57  1  0  0  0  0
 14 58  1  0  0  0  0
 20 59  1  0  0  0  0
 22 60  1  0  0  0  0
 31 61  1  0  0  0  0
 32 62  1  0  0  0  0
 35 63  1  0  0  0  0
 35 64  1  0  0  0  0
 13 65  1  0  0  0  0
 37 66  1  0  0  0  0
 37 67  1  0  0  0  0
 37 68  1  0  0  0  0
 39 69  1  0  0  0  0
 39 70  1  0  0  0  0
 39 71  1  0  0  0  0
 40 72  1  0  0  0  0
 40 73  1  0  0  0  0
 40 74  1  0  0  0  0
 41 75  1  0  0  0  0
 41 76  1  0  0  0  0
 41 77  1  0  0  0  0
 43 78  1  0  0  0  0
 45 79  1  0  0  0  0
 48 80  1  0  0  0  0
 48 81  1  0  0  0  0
 23 82  1  0  0  0  0
 50 83  1  0  0  0  0
 50 84  1  0  0  0  0
 50 85  1  0  0  0  0
 51 86  1  0  0  0  0
 51 87  1  0  0  0  0
 51 88  1  0  0  0  0
M  END
$$$$
