8BSU
  PyMOL3.1          3D                             0

 16 18  0  0  0  0  0  0  0  0999 V2000
  -46.7040  -28.7500  -24.0590 C   0  0  0  0  0  0  0  0  0  0  0  0
  -47.9180  -28.7320  -23.3510 C   0  0  0  0  0  0  0  0  0  0  0  0
  -46.3440  -26.3910  -23.5580 C   0  0  0  0  0  0  0  0  0  0  0  0
  -50.9040  -29.8540  -21.8150 C   0  0  0  0  0  0  0  0  0  0  0  0
  -51.2060  -29.3310  -23.2200 C   0  0  0  0  0  0  0  0  0  0  0  0
  -49.8280  -26.3340  -21.1120 C   0  0  0  0  0  0  0  0  0  0  0  0
  -45.9230  -27.5910  -24.1620 C   0  0  0  0  0  0  0  0  0  0  0  0
  -48.3790  -27.5460  -22.7310 C   0  0  0  0  0  0  0  0  0  0  0  0
  -47.5580  -26.3830  -22.8570 C   0  0  0  0  0  0  0  0  0  0  0  0
  -50.8090  -28.3470  -22.0970 C   0  0  0  0  0  0  0  0  0  0  0  0
  -49.6450  -25.0430  -21.7880 N   0  0  0  0  0  0  0  0  0  0  0  0
  -49.5600  -27.4740  -22.0330 N   0  0  0  0  0  0  0  0  0  0  0  0
  -47.2670  -24.6600  -20.8310 O   0  0  0  0  0  0  0  0  0  0  0  0
  -47.8390  -23.7200  -23.0890 O   0  0  0  0  0  0  0  0  0  0  0  0
  -48.0530  -24.8830  -22.1200 S   0  0  0  0  0  0  0  0  0  0  0  0
  -44.7460  -27.6150  -24.8490 F   0  0  0  0  0  0  0  0  0  0  0  0
  1  2  1  0  0  0  0
  4  5  1  0  0  0  0
  1  7  2  0  0  0  0
  3  7  1  0  0  0  0
  2  8  2  0  0  0  0
  3  9  2  0  0  0  0
  8  9  1  0  0  0  0
  4 10  1  0  0  0  0
  5 10  1  0  0  0  0
  6 11  1  0  0  0  0
  6 12  1  0  0  0  0
  8 12  1  0  0  0  0
 10 12  1  0  0  0  0
  9 15  1  0  0  0  0
 11 15  1  0  0  0  0
 13 15  2  0  0  0  0
 14 15  2  0  0  0  0
  7 16  1  0  0  0  0
M  END
$$$$
