8BSU
  PyMOL3.1          3D                             0

 16 18  0  0  0  0  0  0  0  0999 V2000
   20.1700   21.1170  -36.9800 C   0  0  0  0  0  0  0  0  0  0  0  0
   18.9950   21.4530  -36.2870 C   0  0  0  0  0  0  0  0  0  0  0  0
   21.3300   23.0200  -35.9940 C   0  0  0  0  0  0  0  0  0  0  0  0
   15.6860   21.2640  -34.8860 C   0  0  0  0  0  0  0  0  0  0  0  0
   15.7020   22.0200  -36.2150 C   0  0  0  0  0  0  0  0  0  0  0  0
   17.9550   23.8510  -33.5550 C   0  0  0  0  0  0  0  0  0  0  0  0
   21.3260   21.8910  -36.8350 C   0  0  0  0  0  0  0  0  0  0  0  0
   18.9540   22.5800  -35.4340 C   0  0  0  0  0  0  0  0  0  0  0  0
   20.1510   23.3520  -35.3090 C   0  0  0  0  0  0  0  0  0  0  0  0
   16.3590   22.6410  -34.9620 C   0  0  0  0  0  0  0  0  0  0  0  0
   18.6230   25.1080  -33.9130 N   0  0  0  0  0  0  0  0  0  0  0  0
   17.8340   22.9560  -34.7380 N   0  0  0  0  0  0  0  0  0  0  0  0
   20.9420   24.4100  -32.9910 O   0  0  0  0  0  0  0  0  0  0  0  0
   20.8270   25.9410  -34.9790 O   0  0  0  0  0  0  0  0  0  0  0  0
   20.1770   24.7530  -34.2670 S   0  0  0  0  0  0  0  0  0  0  0  0
   22.4540   21.5470  -37.5130 F   0  0  0  0  0  0  0  0  0  0  0  0
  1  2  1  0  0  0  0
  4  5  1  0  0  0  0
  1  7  2  0  0  0  0
  3  7  1  0  0  0  0
  2  8  2  0  0  0  0
  3  9  2  0  0  0  0
  8  9  1  0  0  0  0
  4 10  1  0  0  0  0
  5 10  1  0  0  0  0
  6 11  1  0  0  0  0
  6 12  1  0  0  0  0
  8 12  1  0  0  0  0
 10 12  1  0  0  0  0
  9 15  1  0  0  0  0
 11 15  1  0  0  0  0
 13 15  2  0  0  0  0
 14 15  2  0  0  0  0
  7 16  1  0  0  0  0
M  END
$$$$
