7D4P
  PyMOL3.1          3D                             0

 23 26  0  0  0  0  0  0  0  0999 V2000
  174.9630  127.6490  154.5080 N   0  0  0  0  0  0  0  0  0  0  0  0
  174.5650  126.3330  155.0410 C   0  0  0  0  0  0  0  0  0  0  0  0
  177.9180  131.1090  162.0730 Cl  0  0  0  0  0  0  0  0  0  0  0  0
  173.7560  128.3870  154.0900 C   0  0  0  0  0  0  0  0  0  0  0  0
  178.1220  129.0720  155.7010 N   0  0  0  0  0  0  0  0  0  0  0  0
  173.0710  126.1730  154.7900 C   0  0  0  0  0  0  0  0  0  0  0  0
  177.7360  126.9410  155.2090 N   0  0  0  0  0  0  0  0  0  0  0  0
  172.5470  127.5740  154.5290 C   0  0  0  0  0  0  0  0  0  0  0  0
  175.6800  128.4190  155.5350 C   0  0  0  0  0  0  0  0  0  0  0  0
  177.1680  128.1450  155.4810 C   0  0  0  0  0  0  0  0  0  0  0  0
  179.3220  128.5000  155.5790 C   0  0  0  0  0  0  0  0  0  0  0  0
  177.8970  130.4790  156.0260 C   0  0  0  0  0  0  0  0  0  0  0  0
  179.0760  127.0820  155.2510 C   0  0  0  0  0  0  0  0  0  0  0  0
  177.9050  130.6410  157.5270 C   0  0  0  0  0  0  0  0  0  0  0  0
  180.6280  128.9580  155.6940 C   0  0  0  0  0  0  0  0  0  0  0  0
  180.1540  126.2270  155.0610 C   0  0  0  0  0  0  0  0  0  0  0  0
  181.6800  128.0690  155.4960 C   0  0  0  0  0  0  0  0  0  0  0  0
  181.4480  126.7290  155.1860 C   0  0  0  0  0  0  0  0  0  0  0  0
  178.9900  131.2450  158.1550 C   0  0  0  0  0  0  0  0  0  0  0  0
  176.8320  130.1780  158.2800 C   0  0  0  0  0  0  0  0  0  0  0  0
  178.9990  131.3900  159.5380 C   0  0  0  0  0  0  0  0  0  0  0  0
  176.8400  130.3240  159.6610 C   0  0  0  0  0  0  0  0  0  0  0  0
  177.9220  130.9290  160.2880 C   0  0  0  0  0  0  0  0  0  0  0  0
  1  2  1  0  0  0  0
  1  4  1  0  0  0  0
  2  6  1  0  0  0  0
  4  8  1  0  0  0  0
  6  8  1  0  0  0  0
  1  9  1  0  0  0  0
  5 10  1  0  0  0  0
  7 10  2  0  0  0  0
  9 10  1  0  0  0  0
  5 11  1  0  0  0  0
  5 12  1  0  0  0  0
  7 13  1  0  0  0  0
 11 13  2  0  0  0  0
 12 14  1  0  0  0  0
 11 15  1  0  0  0  0
 13 16  1  0  0  0  0
 15 17  2  0  0  0  0
 16 18  2  0  0  0  0
 17 18  1  0  0  0  0
 14 19  2  0  0  0  0
 14 20  1  0  0  0  0
 19 21  1  0  0  0  0
 20 22  2  0  0  0  0
  3 23  1  0  0  0  0
 21 23  2  0  0  0  0
 22 23  1  0  0  0  0
M  END
$$$$
