7D4P
  PyMOL3.1          3D                             0

 23 26  0  0  0  0  0  0  0  0999 V2000
  117.6300  164.9490  154.5010 N   0  0  0  0  0  0  0  0  0  0  0  0
  118.0280  166.2650  155.0340 C   0  0  0  0  0  0  0  0  0  0  0  0
  114.6730  161.4890  162.0650 Cl  0  0  0  0  0  0  0  0  0  0  0  0
  118.8370  164.2110  154.0830 C   0  0  0  0  0  0  0  0  0  0  0  0
  114.4710  163.5260  155.6930 N   0  0  0  0  0  0  0  0  0  0  0  0
  119.5220  166.4250  154.7840 C   0  0  0  0  0  0  0  0  0  0  0  0
  114.8570  165.6570  155.2010 N   0  0  0  0  0  0  0  0  0  0  0  0
  120.0460  165.0240  154.5230 C   0  0  0  0  0  0  0  0  0  0  0  0
  116.9130  164.1790  155.5280 C   0  0  0  0  0  0  0  0  0  0  0  0
  115.4250  164.4530  155.4730 C   0  0  0  0  0  0  0  0  0  0  0  0
  113.2710  164.0980  155.5710 C   0  0  0  0  0  0  0  0  0  0  0  0
  114.6960  162.1190  156.0180 C   0  0  0  0  0  0  0  0  0  0  0  0
  113.5170  165.5160  155.2430 C   0  0  0  0  0  0  0  0  0  0  0  0
  114.6880  161.9570  157.5190 C   0  0  0  0  0  0  0  0  0  0  0  0
  111.9650  163.6400  155.6850 C   0  0  0  0  0  0  0  0  0  0  0  0
  112.4390  166.3710  155.0530 C   0  0  0  0  0  0  0  0  0  0  0  0
  110.9130  164.5290  155.4870 C   0  0  0  0  0  0  0  0  0  0  0  0
  111.1450  165.8690  155.1770 C   0  0  0  0  0  0  0  0  0  0  0  0
  113.6030  161.3530  158.1470 C   0  0  0  0  0  0  0  0  0  0  0  0
  115.7610  162.4200  158.2720 C   0  0  0  0  0  0  0  0  0  0  0  0
  113.5930  161.2080  159.5300 C   0  0  0  0  0  0  0  0  0  0  0  0
  115.7520  162.2740  159.6530 C   0  0  0  0  0  0  0  0  0  0  0  0
  114.6700  161.6690  160.2800 C   0  0  0  0  0  0  0  0  0  0  0  0
  1  4  1  0  0  0  0
  1  9  1  0  0  0  0
  1  2  1  0  0  0  0
  2  6  1  0  0  0  0
  3 23  1  0  0  0  0
  4  8  1  0  0  0  0
  5 10  4  0  0  0  0
  5 11  4  0  0  0  0
  6  8  1  0  0  0  0
  7 10  4  0  0  0  0
  7 13  4  0  0  0  0
  9 10  1  0  0  0  0
 11 13  4  0  0  0  0
 11 15  4  0  0  0  0
  5 12  1  0  0  0  0
 12 14  1  0  0  0  0
 13 16  4  0  0  0  0
 14 19  4  0  0  0  0
 14 20  4  0  0  0  0
 15 17  4  0  0  0  0
 16 18  4  0  0  0  0
 17 18  4  0  0  0  0
 19 21  4  0  0  0  0
 20 22  4  0  0  0  0
 21 23  4  0  0  0  0
 22 23  4  0  0  0  0
M  END
$$$$
