8J6P
  PyMOL3.1          3D                             0

 32 35  0  0  0  0  0  0  0  0999 V2000
  103.9040  139.1180  123.6810 C   0  0  0  0  0  0  0  0  0  0  0  0
  105.2150  139.6630  123.0970 C   0  0  0  0  0  0  0  0  0  0  0  0
  105.2260  139.6520  121.5550 N   0  0  0  0  0  0  0  0  0  0  0  0
  106.3230  139.2230  120.7240 C   0  0  0  0  0  0  0  0  0  0  0  0
  107.3270  138.8360  121.2650 O   0  0  0  0  0  0  0  0  0  0  0  0
  106.2750  139.2380  119.1580 C   0  0  0  0  0  0  0  0  0  0  0  0
  106.4140  137.9940  118.4470 C   0  0  0  0  0  0  0  0  0  0  0  0
  106.4050  137.7640  117.1550 N   0  0  0  0  0  0  0  0  0  0  0  0
  106.2450  138.8110  116.2580 C   0  0  0  0  0  0  0  0  0  0  0  0
  106.0960  140.1280  116.8830 N   0  0  0  0  0  0  0  0  0  0  0  0
  106.1110  140.3400  118.3130 C   0  0  0  0  0  0  0  0  0  0  0  0
  105.9550  141.7050  118.9210 C   0  0  0  0  0  0  0  0  0  0  0  0
  105.9500  141.0500  115.8700 N   0  0  0  0  0  0  0  0  0  0  0  0
  106.0060  140.3450  114.7000 C   0  0  0  0  0  0  0  0  0  0  0  0
  106.1930  138.9240  114.8190 C   0  0  0  0  0  0  0  0  0  0  0  0
  106.2820  137.9240  113.6380 C   0  0  0  0  0  0  0  0  0  0  0  0
  105.6220  138.0810  112.4000 C   0  0  0  0  0  0  0  0  0  0  0  0
  105.6820  137.1890  111.3040 C   0  0  0  0  0  0  0  0  0  0  0  0
  106.4150  135.9940  111.2860 C   0  0  0  0  0  0  0  0  0  0  0  0
  107.0830  135.8120  112.5160 C   0  0  0  0  0  0  0  0  0  0  0  0
  107.0180  136.7130  113.6100 C   0  0  0  0  0  0  0  0  0  0  0  0
  106.4750  135.0110  110.0720 C   0  0  0  0  0  0  0  0  0  0  0  0
  105.0900  134.6580  109.4870 C   0  0  0  0  0  0  0  0  0  0  0  0
  107.3320  135.4190  108.8510 C   0  0  0  0  0  0  0  0  0  0  0  0
  105.4650  141.1960  123.6650 C   0  0  0  0  0  0  0  0  0  0  0  0
  104.7540  142.2700  122.9990 O   0  0  0  0  0  0  0  0  0  0  0  0
  105.4470  143.4480  122.6840 C   0  0  0  0  0  0  0  0  0  0  0  0
  106.2370  143.5590  121.5250 C   0  0  0  0  0  0  0  0  0  0  0  0
  106.9270  144.7310  121.2090 C   0  0  0  0  0  0  0  0  0  0  0  0
  106.8660  145.8520  122.0290 C   0  0  0  0  0  0  0  0  0  0  0  0
  106.0900  145.7650  123.1800 C   0  0  0  0  0  0  0  0  0  0  0  0
  105.3970  144.5950  123.5030 C   0  0  0  0  0  0  0  0  0  0  0  0
  1  2  1  0  0  0  0
  2  3  1  0  0  0  0
  3  4  1  0  0  0  0
  4  5  2  0  0  0  0
  4  6  1  0  0  0  0
  6  7  1  0  0  0  0
  7  8  2  0  0  0  0
  8  9  1  0  0  0  0
  9 10  1  0  0  0  0
  6 11  2  0  0  0  0
 10 11  1  0  0  0  0
 11 12  1  0  0  0  0
 10 13  1  0  0  0  0
 13 14  2  0  0  0  0
  9 15  2  0  0  0  0
 14 15  1  0  0  0  0
 15 16  1  0  0  0  0
 16 17  1  0  0  0  0
 17 18  2  0  0  0  0
 18 19  1  0  0  0  0
 19 20  2  0  0  0  0
 16 21  2  0  0  0  0
 20 21  1  0  0  0  0
 19 22  1  0  0  0  0
 22 23  1  0  0  0  0
 22 24  1  0  0  0  0
  2 25  1  0  0  0  0
 25 26  1  0  0  0  0
 26 27  1  0  0  0  0
 27 28  2  0  0  0  0
 28 29  1  0  0  0  0
 29 30  2  0  0  0  0
 30 31  1  0  0  0  0
 27 32  1  0  0  0  0
 31 32  2  0  0  0  0
M  END
$$$$
