6LUR
  PyMOL3.1          3D                             0

 21 23  0  0  0  0  0  0  0  0999 V2000
   49.4380  -16.9750  -94.0080 C   0  0  0  0  0  0  0  0  0  0  0  0
   50.4640  -16.2660  -93.3900 N   0  0  0  0  0  0  0  0  0  0  0  0
   50.8560  -14.6470  -90.1810 O   0  0  0  0  0  0  0  0  0  0  0  0
   50.1690  -16.0290  -91.9890 C   0  0  0  0  0  0  0  0  0  0  0  0
   52.3300  -14.9160  -91.8740 N   0  0  0  0  0  0  0  0  0  0  0  0
   51.1500  -15.1330  -91.2940 C   0  0  0  0  0  0  0  0  0  0  0  0
   47.2770  -10.0510  -92.2450 N   0  0  0  0  0  0  0  0  0  0  0  0
   52.7790  -15.4300  -93.1640 C   0  0  0  0  0  0  0  0  0  0  0  0
   51.8850  -16.5640  -93.6240 C   0  0  0  0  0  0  0  0  0  0  0  0
   48.4780  -13.8850  -93.8830 C   0  0  0  0  0  0  0  0  0  0  0  0
   47.7600  -15.0480  -93.5740 C   0  0  0  0  0  0  0  0  0  0  0  0
   46.6980  -14.9320  -92.6760 C   0  0  0  0  0  0  0  0  0  0  0  0
   46.3550  -13.7070  -92.1240 C   0  0  0  0  0  0  0  0  0  0  0  0
   47.0560  -12.5530  -92.4430 C   0  0  0  0  0  0  0  0  0  0  0  0
   48.1270  -12.6550  -93.3300 C   0  0  0  0  0  0  0  0  0  0  0  0
   48.1050  -16.3860  -94.1310 C   0  0  0  0  0  0  0  0  0  0  0  0
   47.1070  -17.1460  -94.7400 C   0  0  0  0  0  0  0  0  0  0  0  0
   47.3740  -18.4180  -95.2230 C   0  0  0  0  0  0  0  0  0  0  0  0
   48.6410  -18.9570  -95.1220 C   0  0  0  0  0  0  0  0  0  0  0  0
   49.6610  -18.2530  -94.5060 C   0  0  0  0  0  0  0  0  0  0  0  0
   46.6180  -11.2760  -91.7610 C   0  0  0  0  0  0  0  0  0  0  0  0
  1  2  1  0  0  0  0
  2  4  1  0  0  0  0
  3  6  2  0  0  0  0
  4  6  1  0  0  0  0
  5  6  1  0  0  0  0
  5  8  1  0  0  0  0
  2  9  1  0  0  0  0
  8  9  1  0  0  0  0
 10 11  2  0  0  0  0
 11 12  1  0  0  0  0
 12 13  2  0  0  0  0
 13 14  1  0  0  0  0
 10 15  1  0  0  0  0
 14 15  2  0  0  0  0
  1 16  1  0  0  0  0
 11 16  1  0  0  0  0
 16 17  2  0  0  0  0
 17 18  1  0  0  0  0
 18 19  2  0  0  0  0
  1 20  2  0  0  0  0
 19 20  1  0  0  0  0
  7 21  1  0  0  0  0
 14 21  1  0  0  0  0
M  END
$$$$
