8T1V
  PyMOL3.1          3D                             0

 30 33  0  0  0  0  0  0  0  0999 V2000
   12.9790  -10.4670    3.7840 C   0  0  0  0  0  0  0  0  0  0  0  0
   12.1410  -10.7270    5.0300 C   0  0  0  0  0  0  0  0  0  0  0  0
   10.6630  -10.4410    4.7670 C   0  0  0  0  0  0  0  0  0  0  0  0
   12.6380   -9.8430    6.0890 N   0  0  0  0  0  0  0  0  0  0  0  0
   12.5030  -10.1440    7.4650 C   0  0  0  0  0  0  0  0  0  0  0  0
   12.2950  -11.4240    7.8600 N   0  0  0  0  0  0  0  0  0  0  0  0
   12.1670  -11.7040    9.1730 C   0  0  0  0  0  0  0  0  0  0  0  0
   12.2480  -10.6720   10.1190 C   0  0  0  0  0  0  0  0  0  0  0  0
   12.1080  -11.0200   11.4590 C   0  0  0  0  0  0  0  0  0  0  0  0
   11.9010  -12.2750   11.9090 N   0  0  0  0  0  0  0  0  0  0  0  0
   11.8260  -13.2580   10.9830 C   0  0  0  0  0  0  0  0  0  0  0  0
   11.5970  -14.6550   11.4720 C   0  0  0  0  0  0  0  0  0  0  0  0
   11.9540  -13.0100    9.6150 C   0  0  0  0  0  0  0  0  0  0  0  0
   12.4530   -9.3960    9.7350 N   0  0  0  0  0  0  0  0  0  0  0  0
   12.5850   -9.1060    8.4170 C   0  0  0  0  0  0  0  0  0  0  0  0
   12.7970   -7.7540    8.0180 N   0  0  0  0  0  0  0  0  0  0  0  0
   13.4400   -6.8860    9.0190 C   0  0  0  0  0  0  0  0  0  0  0  0
   13.8550   -5.5650    8.3760 C   0  0  0  0  0  0  0  0  0  0  0  0
   12.6570   -4.9230    7.7100 N   0  0  0  0  0  0  0  0  0  0  0  0
   12.9380   -3.5250    7.1860 C   0  0  0  0  0  0  0  0  0  0  0  0
   11.6690   -2.7460    6.9490 C   0  0  0  0  0  0  0  0  0  0  0  0
   11.1540   -1.8750    7.9190 C   0  0  0  0  0  0  0  0  0  0  0  0
    9.9770   -1.1680    7.7060 C   0  0  0  0  0  0  0  0  0  0  0  0
    9.2980   -1.3380    6.5070 C   0  0  0  0  0  0  0  0  0  0  0  0
    9.7780   -2.1960    5.5280 C   0  0  0  0  0  0  0  0  0  0  0  0
   10.9590   -2.8970    5.7520 C   0  0  0  0  0  0  0  0  0  0  0  0
   12.0920   -5.8540    6.6590 C   0  0  0  0  0  0  0  0  0  0  0  0
   11.6530   -7.1430    7.3370 C   0  0  0  0  0  0  0  0  0  0  0  0
   11.8050   -1.7070    9.0820 F   0  0  0  0  0  0  0  0  0  0  0  0
    8.1600   -0.6640    6.2840 F   0  0  0  0  0  0  0  0  0  0  0  0
  1  2  1  0  0  0  0
  2  3  1  0  0  0  0
  2  4  1  0  0  0  0
  4  5  1  0  0  0  0
  5  6  2  0  0  0  0
  6  7  1  0  0  0  0
  7  8  1  0  0  0  0
  8  9  2  0  0  0  0
  9 10  1  0  0  0  0
 10 11  2  0  0  0  0
 11 12  1  0  0  0  0
  7 13  2  0  0  0  0
 11 13  1  0  0  0  0
  8 14  1  0  0  0  0
  5 15  1  0  0  0  0
 14 15  2  0  0  0  0
 15 16  1  0  0  0  0
 16 17  1  0  0  0  0
 17 18  1  0  0  0  0
 18 19  1  0  0  0  0
 19 20  1  0  0  0  0
 20 21  1  0  0  0  0
 21 22  2  0  0  0  0
 22 23  1  0  0  0  0
 23 24  2  0  0  0  0
 24 25  1  0  0  0  0
 21 26  1  0  0  0  0
 25 26  2  0  0  0  0
 19 27  1  0  0  0  0
 16 28  1  0  0  0  0
 27 28  1  0  0  0  0
 22 29  1  0  0  0  0
 24 30  1  0  0  0  0
M  END
$$$$
