7LW1
  PyMOL3.1          3D                             0

212224  0  0  0  0  0  0  0  0999 V2000
  185.9170  143.9450  167.3840 O   0  0  0  0  0  0  0  0  0  0  0  0
  187.0760  144.6920  167.6790 C   0  0  0  0  0  0  0  0  0  0  0  0
  187.2310  144.9850  169.1660 C   0  0  0  0  0  0  0  0  0  0  0  0
  186.0570  144.5980  170.0930 C   0  0  0  0  0  0  0  0  0  0  0  0
  186.3870  143.9390  171.3730 C   0  0  0  0  0  0  0  0  0  0  0  0
  186.6530  143.4060  172.4090 C   0  0  0  0  0  0  0  0  0  0  0  0
  186.4660  142.7540  175.9410 C   0  0  0  0  0  0  0  0  0  0  0  0
  186.2240  143.3050  174.6870 C   0  0  0  0  0  0  0  0  0  0  0  0
  186.9600  142.7910  173.6410 C   0  0  0  0  0  0  0  0  0  0  0  0
  187.8950  141.7720  173.8020 C   0  0  0  0  0  0  0  0  0  0  0  0
  188.1440  141.2290  175.0670 C   0  0  0  0  0  0  0  0  0  0  0  0
  187.3980  141.7400  176.1440 C   0  0  0  0  0  0  0  0  0  0  0  0
  190.7220  141.9920  168.3930 C   0  0  0  0  0  0  0  0  0  0  0  0
  191.7570  141.1850  168.6720 C   0  0  0  0  0  0  0  0  0  0  0  0
  193.0750  141.2420  168.2310 C   0  0  0  0  0  0  0  0  0  0  0  0
  193.2300  142.3300  167.4110 C   0  0  0  0  0  0  0  0  0  0  0  0
  192.2000  143.2300  167.0710 C   0  0  0  0  0  0  0  0  0  0  0  0
  190.9510  143.0930  167.5590 C   0  0  0  0  0  0  0  0  0  0  0  0
  194.4420  142.6310  166.7940 N   0  0  0  0  0  0  0  0  0  0  0  0
  195.3760  141.7220  166.3700 C   0  0  0  0  0  0  0  0  0  0  0  0
  195.1290  140.5550  166.6110 O   0  0  0  0  0  0  0  0  0  0  0  0
  196.5770  142.2310  165.6740 C   0  0  0  0  0  0  0  0  0  0  0  0
  189.5060  141.5790  169.1120 C   0  0  0  0  0  0  0  0  0  0  0  0
  189.2930  141.2960  170.5040 N   0  0  0  0  0  0  0  0  0  0  0  0
  189.9680  140.3880  171.1570 C   0  0  0  0  0  0  0  0  0  0  0  0
  190.9640  139.5810  170.5220 C   0  0  0  0  0  0  0  0  0  0  0  0
  191.7340  140.0720  169.4730 O   0  0  0  0  0  0  0  0  0  0  0  0
  188.3980  142.0200  171.3000 N   0  0  0  0  0  0  0  0  0  0  0  0
  188.5570  141.4320  172.4970 C   0  0  0  0  0  0  0  0  0  0  0  0
  189.5470  140.4390  172.4530 C   0  0  0  0  0  0  0  0  0  0  0  0
  186.1510  143.0200  167.5180 H   0  0  0  0  0  0  0  0  0  0  0  0
  187.1130  145.7280  167.2960 H   0  0  0  0  0  0  0  0  0  0  0  0
  187.9340  144.0680  167.4190 H   0  0  0  0  0  0  0  0  0  0  0  0
  187.0850  146.0310  169.3190 H   0  0  0  0  0  0  0  0  0  0  0  0
  188.2820  144.7730  169.4220 H   0  0  0  0  0  0  0  0  0  0  0  0
  185.3830  143.8650  169.6620 H   0  0  0  0  0  0  0  0  0  0  0  0
  185.4570  145.5010  170.3300 H   0  0  0  0  0  0  0  0  0  0  0  0
  185.9510  143.0650  176.8540 H   0  0  0  0  0  0  0  0  0  0  0  0
  185.5680  144.0740  174.3030 H   0  0  0  0  0  0  0  0  0  0  0  0
  188.9210  140.4360  175.0250 H   0  0  0  0  0  0  0  0  0  0  0  0
  187.5780  141.3060  177.1600 H   0  0  0  0  0  0  0  0  0  0  0  0
  193.5660  140.3790  168.6910 H   0  0  0  0  0  0  0  0  0  0  0  0
  192.5320  144.0060  166.4110 H   0  0  0  0  0  0  0  0  0  0  0  0
  190.2170  143.8340  167.2510 H   0  0  0  0  0  0  0  0  0  0  0  0
  194.3430  143.6230  166.7220 H   0  0  0  0  0  0  0  0  0  0  0  0
  196.0410  143.0130  165.1620 H   0  0  0  0  0  0  0  0  0  0  0  0
  197.0580  141.4740  165.0320 H   0  0  0  0  0  0  0  0  0  0  0  0
  197.1940  142.6130  166.4630 H   0  0  0  0  0  0  0  0  0  0  0  0
  189.2290  140.7580  168.4870 H   0  0  0  0  0  0  0  0  0  0  0  0
  188.8040  142.4070  169.1140 H   0  0  0  0  0  0  0  0  0  0  0  0
  190.2140  138.8990  170.1190 H   0  0  0  0  0  0  0  0  0  0  0  0
  191.6230  139.3080  171.3680 H   0  0  0  0  0  0  0  0  0  0  0  0
  189.6230  140.0410  173.4180 H   0  0  0  0  0  0  0  0  0  0  0  0
  185.9290  171.0630  147.6190 O   0  0  0  0  0  0  0  0  0  0  0  0
  187.0880  170.3160  147.3240 C   0  0  0  0  0  0  0  0  0  0  0  0
  187.2430  170.0230  145.8370 C   0  0  0  0  0  0  0  0  0  0  0  0
  186.0690  170.4100  144.9100 C   0  0  0  0  0  0  0  0  0  0  0  0
  186.3980  171.0690  143.6300 C   0  0  0  0  0  0  0  0  0  0  0  0
  186.6640  171.6020  142.5940 C   0  0  0  0  0  0  0  0  0  0  0  0
  186.4770  172.2540  139.0620 C   0  0  0  0  0  0  0  0  0  0  0  0
  186.2350  171.7030  140.3160 C   0  0  0  0  0  0  0  0  0  0  0  0
  186.9710  172.2170  141.3620 C   0  0  0  0  0  0  0  0  0  0  0  0
  187.9060  173.2360  141.2010 C   0  0  0  0  0  0  0  0  0  0  0  0
  188.1550  173.7790  139.9360 C   0  0  0  0  0  0  0  0  0  0  0  0
  187.4090  173.2680  138.8590 C   0  0  0  0  0  0  0  0  0  0  0  0
  190.7330  173.0170  146.6100 C   0  0  0  0  0  0  0  0  0  0  0  0
  191.7680  173.8240  146.3310 C   0  0  0  0  0  0  0  0  0  0  0  0
  193.0860  173.7670  146.7720 C   0  0  0  0  0  0  0  0  0  0  0  0
  193.2410  172.6790  147.5920 C   0  0  0  0  0  0  0  0  0  0  0  0
  192.2110  171.7790  147.9320 C   0  0  0  0  0  0  0  0  0  0  0  0
  190.9620  171.9160  147.4440 C   0  0  0  0  0  0  0  0  0  0  0  0
  194.4530  172.3790  148.2090 N   0  0  0  0  0  0  0  0  0  0  0  0
  195.3870  173.2880  148.6330 C   0  0  0  0  0  0  0  0  0  0  0  0
  195.1400  174.4550  148.3920 O   0  0  0  0  0  0  0  0  0  0  0  0
  196.5880  172.7790  149.3290 C   0  0  0  0  0  0  0  0  0  0  0  0
  189.5170  173.4300  145.8910 C   0  0  0  0  0  0  0  0  0  0  0  0
  189.3040  173.7120  144.4990 N   0  0  0  0  0  0  0  0  0  0  0  0
  189.9790  174.6210  143.8460 C   0  0  0  0  0  0  0  0  0  0  0  0
  190.9750  175.4280  144.4810 C   0  0  0  0  0  0  0  0  0  0  0  0
  191.7450  174.9370  145.5300 O   0  0  0  0  0  0  0  0  0  0  0  0
  188.4090  172.9880  143.7030 N   0  0  0  0  0  0  0  0  0  0  0  0
  188.5680  173.5760  142.5060 C   0  0  0  0  0  0  0  0  0  0  0  0
  189.5580  174.5690  142.5500 C   0  0  0  0  0  0  0  0  0  0  0  0
  186.1620  171.9880  147.4850 H   0  0  0  0  0  0  0  0  0  0  0  0
  187.1250  169.2800  147.7070 H   0  0  0  0  0  0  0  0  0  0  0  0
  187.9460  170.9400  147.5840 H   0  0  0  0  0  0  0  0  0  0  0  0
  187.0970  168.9770  145.6840 H   0  0  0  0  0  0  0  0  0  0  0  0
  188.2940  170.2350  145.5810 H   0  0  0  0  0  0  0  0  0  0  0  0
  185.3940  171.1430  145.3410 H   0  0  0  0  0  0  0  0  0  0  0  0
  185.4690  169.5070  144.6730 H   0  0  0  0  0  0  0  0  0  0  0  0
  185.9620  171.9430  138.1490 H   0  0  0  0  0  0  0  0  0  0  0  0
  185.5790  170.9340  140.7000 H   0  0  0  0  0  0  0  0  0  0  0  0
  188.9310  174.5720  139.9780 H   0  0  0  0  0  0  0  0  0  0  0  0
  187.5880  173.7020  137.8430 H   0  0  0  0  0  0  0  0  0  0  0  0
  193.5770  174.6300  146.3120 H   0  0  0  0  0  0  0  0  0  0  0  0
  192.5440  171.0030  148.5920 H   0  0  0  0  0  0  0  0  0  0  0  0
  190.2290  171.1750  147.7520 H   0  0  0  0  0  0  0  0  0  0  0  0
  194.3550  171.3870  148.2810 H   0  0  0  0  0  0  0  0  0  0  0  0
  196.0520  171.9970  149.8410 H   0  0  0  0  0  0  0  0  0  0  0  0
  197.0690  173.5360  149.9700 H   0  0  0  0  0  0  0  0  0  0  0  0
  197.2050  172.3970  148.5390 H   0  0  0  0  0  0  0  0  0  0  0  0
  189.2400  174.2510  146.5160 H   0  0  0  0  0  0  0  0  0  0  0  0
  188.8150  172.6010  145.8890 H   0  0  0  0  0  0  0  0  0  0  0  0
  190.2240  176.1100  144.8840 H   0  0  0  0  0  0  0  0  0  0  0  0
  191.6330  175.7010  143.6350 H   0  0  0  0  0  0  0  0  0  0  0  0
  189.6330  174.9670  141.5850 H   0  0  0  0  0  0  0  0  0  0  0  0
  129.0830  171.0480  167.3800 O   0  0  0  0  0  0  0  0  0  0  0  0
  127.9240  170.3010  167.6750 C   0  0  0  0  0  0  0  0  0  0  0  0
  127.7690  170.0080  169.1610 C   0  0  0  0  0  0  0  0  0  0  0  0
  128.9430  170.3940  170.0890 C   0  0  0  0  0  0  0  0  0  0  0  0
  128.6130  171.0530  171.3690 C   0  0  0  0  0  0  0  0  0  0  0  0
  128.3470  171.5860  172.4050 C   0  0  0  0  0  0  0  0  0  0  0  0
  128.5340  172.2370  175.9370 C   0  0  0  0  0  0  0  0  0  0  0  0
  128.7760  171.6870  174.6830 C   0  0  0  0  0  0  0  0  0  0  0  0
  128.0400  172.2010  173.6370 C   0  0  0  0  0  0  0  0  0  0  0  0
  127.1050  173.2200  173.7980 C   0  0  0  0  0  0  0  0  0  0  0  0
  126.8570  173.7630  175.0630 C   0  0  0  0  0  0  0  0  0  0  0  0
  127.6020  173.2520  176.1400 C   0  0  0  0  0  0  0  0  0  0  0  0
  124.2780  173.0020  168.3890 C   0  0  0  0  0  0  0  0  0  0  0  0
  123.2440  173.8090  168.6680 C   0  0  0  0  0  0  0  0  0  0  0  0
  121.9260  173.7530  168.2270 C   0  0  0  0  0  0  0  0  0  0  0  0
  121.7700  172.6650  167.4070 C   0  0  0  0  0  0  0  0  0  0  0  0
  122.8000  171.7650  167.0670 C   0  0  0  0  0  0  0  0  0  0  0  0
  124.0490  171.9010  167.5550 C   0  0  0  0  0  0  0  0  0  0  0  0
  120.5580  172.3640  166.7900 N   0  0  0  0  0  0  0  0  0  0  0  0
  119.6250  173.2740  166.3660 C   0  0  0  0  0  0  0  0  0  0  0  0
  119.8720  174.4400  166.6070 O   0  0  0  0  0  0  0  0  0  0  0  0
  118.4230  172.7650  165.6700 C   0  0  0  0  0  0  0  0  0  0  0  0
  125.4950  173.4140  169.1080 C   0  0  0  0  0  0  0  0  0  0  0  0
  125.7080  173.6970  170.5000 N   0  0  0  0  0  0  0  0  0  0  0  0
  125.0330  174.6050  171.1530 C   0  0  0  0  0  0  0  0  0  0  0  0
  124.0370  175.4130  170.5180 C   0  0  0  0  0  0  0  0  0  0  0  0
  123.2670  174.9220  169.4690 O   0  0  0  0  0  0  0  0  0  0  0  0
  126.6020  172.9730  171.2960 N   0  0  0  0  0  0  0  0  0  0  0  0
  126.4440  173.5610  172.4930 C   0  0  0  0  0  0  0  0  0  0  0  0
  125.4540  174.5540  172.4490 C   0  0  0  0  0  0  0  0  0  0  0  0
  128.8490  171.9730  167.5140 H   0  0  0  0  0  0  0  0  0  0  0  0
  127.8860  169.2650  167.2910 H   0  0  0  0  0  0  0  0  0  0  0  0
  127.0660  170.9250  167.4150 H   0  0  0  0  0  0  0  0  0  0  0  0
  127.9140  168.9620  169.3140 H   0  0  0  0  0  0  0  0  0  0  0  0
  126.7180  170.2200  169.4170 H   0  0  0  0  0  0  0  0  0  0  0  0
  129.6170  171.1270  169.6580 H   0  0  0  0  0  0  0  0  0  0  0  0
  129.5420  169.4910  170.3250 H   0  0  0  0  0  0  0  0  0  0  0  0
  129.0490  171.9260  176.8500 H   0  0  0  0  0  0  0  0  0  0  0  0
  129.4320  170.9170  174.2990 H   0  0  0  0  0  0  0  0  0  0  0  0
  126.0800  174.5560  175.0210 H   0  0  0  0  0  0  0  0  0  0  0  0
  127.4220  173.6860  177.1560 H   0  0  0  0  0  0  0  0  0  0  0  0
  121.4350  174.6160  168.6870 H   0  0  0  0  0  0  0  0  0  0  0  0
  122.4680  170.9890  166.4060 H   0  0  0  0  0  0  0  0  0  0  0  0
  124.7830  171.1600  167.2470 H   0  0  0  0  0  0  0  0  0  0  0  0
  120.6570  171.3720  166.7170 H   0  0  0  0  0  0  0  0  0  0  0  0
  118.9590  171.9830  165.1570 H   0  0  0  0  0  0  0  0  0  0  0  0
  117.9430  173.5220  165.0280 H   0  0  0  0  0  0  0  0  0  0  0  0
  117.8060  172.3830  166.4590 H   0  0  0  0  0  0  0  0  0  0  0  0
  125.7720  174.2350  168.4830 H   0  0  0  0  0  0  0  0  0  0  0  0
  126.1960  172.5860  169.1100 H   0  0  0  0  0  0  0  0  0  0  0  0
  124.7870  176.0940  170.1150 H   0  0  0  0  0  0  0  0  0  0  0  0
  123.3780  175.6860  171.3640 H   0  0  0  0  0  0  0  0  0  0  0  0
  125.3780  174.9520  173.4140 H   0  0  0  0  0  0  0  0  0  0  0  0
  129.0690  143.9400  147.6170 O   0  0  0  0  0  0  0  0  0  0  0  0
  127.9100  144.6870  147.3220 C   0  0  0  0  0  0  0  0  0  0  0  0
  127.7550  144.9800  145.8360 C   0  0  0  0  0  0  0  0  0  0  0  0
  128.9290  144.5940  144.9080 C   0  0  0  0  0  0  0  0  0  0  0  0
  128.5990  143.9350  143.6280 C   0  0  0  0  0  0  0  0  0  0  0  0
  128.3330  143.4020  142.5920 C   0  0  0  0  0  0  0  0  0  0  0  0
  128.5200  142.7500  139.0600 C   0  0  0  0  0  0  0  0  0  0  0  0
  128.7620  143.3010  140.3140 C   0  0  0  0  0  0  0  0  0  0  0  0
  128.0270  142.7870  141.3600 C   0  0  0  0  0  0  0  0  0  0  0  0
  127.0920  141.7670  141.1990 C   0  0  0  0  0  0  0  0  0  0  0  0
  126.8430  141.2240  139.9340 C   0  0  0  0  0  0  0  0  0  0  0  0
  127.5890  141.7360  138.8570 C   0  0  0  0  0  0  0  0  0  0  0  0
  124.2650  141.9850  146.6080 C   0  0  0  0  0  0  0  0  0  0  0  0
  123.2300  141.1780  146.3290 C   0  0  0  0  0  0  0  0  0  0  0  0
  121.9120  141.2350  146.7700 C   0  0  0  0  0  0  0  0  0  0  0  0
  121.7570  142.3220  147.5910 C   0  0  0  0  0  0  0  0  0  0  0  0
  122.7870  143.2230  147.9310 C   0  0  0  0  0  0  0  0  0  0  0  0
  124.0360  143.0860  147.4430 C   0  0  0  0  0  0  0  0  0  0  0  0
  120.5450  142.6230  148.2080 N   0  0  0  0  0  0  0  0  0  0  0  0
  119.6110  141.7130  148.6320 C   0  0  0  0  0  0  0  0  0  0  0  0
  119.8590  140.5470  148.3910 O   0  0  0  0  0  0  0  0  0  0  0  0
  118.4100  142.2220  149.3280 C   0  0  0  0  0  0  0  0  0  0  0  0
  125.4810  141.5730  145.8890 C   0  0  0  0  0  0  0  0  0  0  0  0
  125.6940  141.2900  144.4970 N   0  0  0  0  0  0  0  0  0  0  0  0
  125.0200  140.3820  143.8440 C   0  0  0  0  0  0  0  0  0  0  0  0
  124.0240  139.5750  144.4790 C   0  0  0  0  0  0  0  0  0  0  0  0
  123.2540  140.0650  145.5280 O   0  0  0  0  0  0  0  0  0  0  0  0
  126.5890  142.0150  143.7010 N   0  0  0  0  0  0  0  0  0  0  0  0
  126.4300  141.4270  142.5040 C   0  0  0  0  0  0  0  0  0  0  0  0
  125.4410  140.4330  142.5480 C   0  0  0  0  0  0  0  0  0  0  0  0
  128.8360  143.0150  147.4830 H   0  0  0  0  0  0  0  0  0  0  0  0
  127.8730  145.7230  147.7060 H   0  0  0  0  0  0  0  0  0  0  0  0
  127.0520  144.0620  147.5820 H   0  0  0  0  0  0  0  0  0  0  0  0
  127.9000  146.0260  145.6830 H   0  0  0  0  0  0  0  0  0  0  0  0
  126.7040  144.7680  145.5800 H   0  0  0  0  0  0  0  0  0  0  0  0
  129.6030  143.8610  145.3390 H   0  0  0  0  0  0  0  0  0  0  0  0
  129.5290  145.4970  144.6710 H   0  0  0  0  0  0  0  0  0  0  0  0
  129.0350  143.0610  138.1470 H   0  0  0  0  0  0  0  0  0  0  0  0
  129.4180  144.0700  140.6980 H   0  0  0  0  0  0  0  0  0  0  0  0
  126.0660  140.4310  139.9760 H   0  0  0  0  0  0  0  0  0  0  0  0
  127.4090  141.3020  137.8410 H   0  0  0  0  0  0  0  0  0  0  0  0
  121.4220  140.3710  146.3100 H   0  0  0  0  0  0  0  0  0  0  0  0
  122.4540  143.9990  148.5910 H   0  0  0  0  0  0  0  0  0  0  0  0
  124.7690  143.8280  147.7510 H   0  0  0  0  0  0  0  0  0  0  0  0
  120.6440  143.6150  148.2800 H   0  0  0  0  0  0  0  0  0  0  0  0
  118.9460  143.0040  149.8400 H   0  0  0  0  0  0  0  0  0  0  0  0
  117.9300  141.4650  149.9700 H   0  0  0  0  0  0  0  0  0  0  0  0
  117.7930  142.6040  148.5390 H   0  0  0  0  0  0  0  0  0  0  0  0
  125.7590  140.7520  146.5140 H   0  0  0  0  0  0  0  0  0  0  0  0
  126.1830  142.4010  145.8870 H   0  0  0  0  0  0  0  0  0  0  0  0
  124.7740  138.8930  144.8820 H   0  0  0  0  0  0  0  0  0  0  0  0
  123.3650  139.3010  143.6330 H   0  0  0  0  0  0  0  0  0  0  0  0
  125.3650  140.0350  141.5830 H   0  0  0  0  0  0  0  0  0  0  0  0
  1  2  1  0  0  0  0
  2  3  1  0  0  0  0
  3  4  1  0  0  0  0
  4  5  1  0  0  0  0
  5  6  3  0  0  0  0
  7  8  2  0  0  0  0
  6  9  1  0  0  0  0
  8  9  1  0  0  0  0
  9 10  2  0  0  0  0
 10 11  1  0  0  0  0
  7 12  1  0  0  0  0
 11 12  2  0  0  0  0
 13 14  1  0  0  0  0
 14 15  2  0  0  0  0
 15 16  1  0  0  0  0
 16 17  2  0  0  0  0
 13 18  2  0  0  0  0
 17 18  1  0  0  0  0
 16 19  1  0  0  0  0
 19 20  1  0  0  0  0
 20 21  2  0  0  0  0
 20 22  1  0  0  0  0
 13 23  1  0  0  0  0
 23 24  1  0  0  0  0
 24 25  1  0  0  0  0
 25 26  1  0  0  0  0
 14 27  1  0  0  0  0
 26 27  1  0  0  0  0
 24 28  1  0  0  0  0
 10 29  1  0  0  0  0
 28 29  2  0  0  0  0
 25 30  2  0  0  0  0
 29 30  1  0  0  0  0
  1 31  1  0  0  0  0
  2 32  1  0  0  0  0
  2 33  1  0  0  0  0
  3 34  1  0  0  0  0
  3 35  1  0  0  0  0
  4 36  1  0  0  0  0
  4 37  1  0  0  0  0
  7 38  1  0  0  0  0
  8 39  1  0  0  0  0
 11 40  1  0  0  0  0
 12 41  1  0  0  0  0
 15 42  1  0  0  0  0
 17 43  1  0  0  0  0
 18 44  1  0  0  0  0
 19 45  1  0  0  0  0
 22 46  1  0  0  0  0
 22 47  1  0  0  0  0
 22 48  1  0  0  0  0
 23 49  1  0  0  0  0
 23 50  1  0  0  0  0
 26 51  1  0  0  0  0
 26 52  1  0  0  0  0
 30 53  1  0  0  0  0
 54 55  1  0  0  0  0
 55 56  1  0  0  0  0
 56 57  1  0  0  0  0
 57 58  1  0  0  0  0
 58 59  3  0  0  0  0
 60 61  2  0  0  0  0
 59 62  1  0  0  0  0
 61 62  1  0  0  0  0
 62 63  2  0  0  0  0
 63 64  1  0  0  0  0
 60 65  1  0  0  0  0
 64 65  2  0  0  0  0
 66 67  1  0  0  0  0
 67 68  2  0  0  0  0
 68 69  1  0  0  0  0
 69 70  2  0  0  0  0
 66 71  2  0  0  0  0
 70 71  1  0  0  0  0
 69 72  1  0  0  0  0
 72 73  1  0  0  0  0
 73 74  2  0  0  0  0
 73 75  1  0  0  0  0
 66 76  1  0  0  0  0
 76 77  1  0  0  0  0
 77 78  1  0  0  0  0
 78 79  1  0  0  0  0
 67 80  1  0  0  0  0
 79 80  1  0  0  0  0
 77 81  1  0  0  0  0
 63 82  1  0  0  0  0
 81 82  2  0  0  0  0
 78 83  2  0  0  0  0
 82 83  1  0  0  0  0
 54 84  1  0  0  0  0
 55 85  1  0  0  0  0
 55 86  1  0  0  0  0
 56 87  1  0  0  0  0
 56 88  1  0  0  0  0
 57 89  1  0  0  0  0
 57 90  1  0  0  0  0
 60 91  1  0  0  0  0
 61 92  1  0  0  0  0
 64 93  1  0  0  0  0
 65 94  1  0  0  0  0
 68 95  1  0  0  0  0
 70 96  1  0  0  0  0
 71 97  1  0  0  0  0
 72 98  1  0  0  0  0
 75 99  1  0  0  0  0
 75100  1  0  0  0  0
 75101  1  0  0  0  0
 76102  1  0  0  0  0
 76103  1  0  0  0  0
 79104  1  0  0  0  0
 79105  1  0  0  0  0
 83106  1  0  0  0  0
107108  1  0  0  0  0
108109  1  0  0  0  0
109110  1  0  0  0  0
110111  1  0  0  0  0
111112  3  0  0  0  0
113114  2  0  0  0  0
112115  1  0  0  0  0
114115  1  0  0  0  0
115116  2  0  0  0  0
116117  1  0  0  0  0
113118  1  0  0  0  0
117118  2  0  0  0  0
119120  1  0  0  0  0
120121  2  0  0  0  0
121122  1  0  0  0  0
122123  2  0  0  0  0
119124  2  0  0  0  0
123124  1  0  0  0  0
122125  1  0  0  0  0
125126  1  0  0  0  0
126127  2  0  0  0  0
126128  1  0  0  0  0
119129  1  0  0  0  0
129130  1  0  0  0  0
130131  1  0  0  0  0
131132  1  0  0  0  0
120133  1  0  0  0  0
132133  1  0  0  0  0
130134  1  0  0  0  0
116135  1  0  0  0  0
134135  2  0  0  0  0
131136  2  0  0  0  0
135136  1  0  0  0  0
107137  1  0  0  0  0
108138  1  0  0  0  0
108139  1  0  0  0  0
109140  1  0  0  0  0
109141  1  0  0  0  0
110142  1  0  0  0  0
110143  1  0  0  0  0
113144  1  0  0  0  0
114145  1  0  0  0  0
117146  1  0  0  0  0
118147  1  0  0  0  0
121148  1  0  0  0  0
123149  1  0  0  0  0
124150  1  0  0  0  0
125151  1  0  0  0  0
128152  1  0  0  0  0
128153  1  0  0  0  0
128154  1  0  0  0  0
129155  1  0  0  0  0
129156  1  0  0  0  0
132157  1  0  0  0  0
132158  1  0  0  0  0
136159  1  0  0  0  0
160161  1  0  0  0  0
161162  1  0  0  0  0
162163  1  0  0  0  0
163164  1  0  0  0  0
164165  3  0  0  0  0
166167  2  0  0  0  0
165168  1  0  0  0  0
167168  1  0  0  0  0
168169  2  0  0  0  0
169170  1  0  0  0  0
166171  1  0  0  0  0
170171  2  0  0  0  0
172173  1  0  0  0  0
173174  2  0  0  0  0
174175  1  0  0  0  0
175176  2  0  0  0  0
172177  2  0  0  0  0
176177  1  0  0  0  0
175178  1  0  0  0  0
178179  1  0  0  0  0
179180  2  0  0  0  0
179181  1  0  0  0  0
172182  1  0  0  0  0
182183  1  0  0  0  0
183184  1  0  0  0  0
184185  1  0  0  0  0
173186  1  0  0  0  0
185186  1  0  0  0  0
183187  1  0  0  0  0
169188  1  0  0  0  0
187188  2  0  0  0  0
184189  2  0  0  0  0
188189  1  0  0  0  0
160190  1  0  0  0  0
161191  1  0  0  0  0
161192  1  0  0  0  0
162193  1  0  0  0  0
162194  1  0  0  0  0
163195  1  0  0  0  0
163196  1  0  0  0  0
166197  1  0  0  0  0
167198  1  0  0  0  0
170199  1  0  0  0  0
171200  1  0  0  0  0
174201  1  0  0  0  0
176202  1  0  0  0  0
177203  1  0  0  0  0
178204  1  0  0  0  0
181205  1  0  0  0  0
181206  1  0  0  0  0
181207  1  0  0  0  0
182208  1  0  0  0  0
182209  1  0  0  0  0
185210  1  0  0  0  0
185211  1  0  0  0  0
189212  1  0  0  0  0
M  END
$$$$
