7F61
  PyMOL3.1          3D                             0

 23 25  0  0  0  0  0  0  0  0999 V2000
  -20.2900   53.3480   -0.3430 C   0  0  0  0  0  0  0  0  0  0  0  0
  -18.8610   54.7240   -1.0410 C   0  0  0  0  0  0  0  0  0  0  0  0
  -19.5730   53.5450   -1.7110 C   0  0  0  0  0  0  0  0  0  0  0  0
  -19.0520   53.9780    0.3090 C   0  0  0  0  0  0  0  0  0  0  0  0
  -20.6240   52.0310    0.0100 C   0  0  0  0  0  0  0  0  0  0  0  0
  -17.3840   54.8990   -1.4530 C   0  0  0  0  0  0  0  0  0  0  0  0
  -20.6700   51.6280    1.3410 C   0  0  0  0  0  0  0  0  0  0  0  0
  -21.0140   51.1250   -0.9490 C   0  0  0  0  0  0  0  0  0  0  0  0
  -21.2900   45.7820    0.8670 C   0  0  0  0  0  0  0  0  0  0  0  0
  -19.4540   47.1750    1.1670 C   0  0  0  0  0  0  0  0  0  0  0  0
  -21.7770   48.1140    1.0520 C   0  0  0  0  0  0  0  0  0  0  0  0
  -20.1370   44.9120    0.4900 C   0  0  0  0  0  0  0  0  0  0  0  0
  -18.9320   45.7740    0.8340 C   0  0  0  0  0  0  0  0  0  0  0  0
  -21.4060   49.4230    0.7250 C   0  0  0  0  0  0  0  0  0  0  0  0
  -21.0360   50.3320    1.6930 C   0  0  0  0  0  0  0  0  0  0  0  0
  -21.3830   49.8310   -0.5930 C   0  0  0  0  0  0  0  0  0  0  0  0
  -15.7630   56.4900   -2.4380 C   0  0  0  0  0  0  0  0  0  0  0  0
  -14.8930   56.4730   -1.2000 C   0  0  0  0  0  0  0  0  0  0  0  0
  -20.7840   47.1230    0.5500 N   0  0  0  0  0  0  0  0  0  0  0  0
  -17.1000   56.1170   -1.9760 N   0  0  0  0  0  0  0  0  0  0  0  0
  -16.5550   53.9950   -1.2870 O   0  0  0  0  0  0  0  0  0  0  0  0
  -21.4300   54.1530   -0.0020 F   0  0  0  0  0  0  0  0  0  0  0  0
  -21.0280   49.9820    2.8830 F   0  0  0  0  0  0  0  0  0  0  0  0
  1  3  1  0  0  0  0
  2  3  1  0  0  0  0
  1  4  1  0  0  0  0
  2  4  1  0  0  0  0
  1  5  1  0  0  0  0
  2  6  1  0  0  0  0
  5  7  2  0  0  0  0
  5  8  1  0  0  0  0
  9 12  1  0  0  0  0
 10 13  1  0  0  0  0
 12 13  1  0  0  0  0
 11 14  1  0  0  0  0
  7 15  1  0  0  0  0
 14 15  2  0  0  0  0
  8 16  2  0  0  0  0
 14 16  1  0  0  0  0
 17 18  1  0  0  0  0
  9 19  1  0  0  0  0
 10 19  1  0  0  0  0
 11 19  1  0  0  0  0
  6 20  1  0  0  0  0
 17 20  1  0  0  0  0
  6 21  2  0  0  0  0
  1 22  1  0  0  0  0
 15 23  1  0  0  0  0
M  END
$$$$
