8TZ5
  PyMOL3.1          3D                             0

 31 32  0  0  0  0  0  0  0  0999 V2000
  142.0450  158.8690  137.8680 O   0  0  0  0  0  0  0  0  0  0  0  0
  141.2840  158.7440  138.7600 C   0  0  0  0  0  0  0  0  0  0  0  0
  139.8310  158.6720  138.4820 N   0  0  0  0  0  0  0  0  0  0  0  0
  138.8900  158.5180  139.5740 C   0  0  0  0  0  0  0  0  0  0  0  0
  137.4920  158.4480  139.3160 N   0  0  0  0  0  0  0  0  0  0  0  0
  136.6040  158.3000  140.3820 O   0  0  0  0  0  0  0  0  0  0  0  0
  139.3870  158.4340  140.9700 C   0  0  0  0  0  0  0  0  0  0  0  0
  140.8480  158.5050  141.2470 C   0  0  0  0  0  0  0  0  0  0  0  0
  141.7840  158.6580  140.1560 N   0  0  0  0  0  0  0  0  0  0  0  0
  143.1880  158.7280  140.4320 C   0  0  0  0  0  0  0  0  0  0  0  0
  143.4210  158.2520  141.6120 O   0  0  0  0  0  0  0  0  0  0  0  0
  144.3120  159.2540  142.2970 C   0  0  0  0  0  0  0  0  0  0  0  0
  143.9940  159.3670  143.6660 C   0  0  0  0  0  0  0  0  0  0  0  0
  142.6210  159.5830  143.7820 O   0  0  0  0  0  0  0  0  0  0  0  0
  143.9950  160.6080  141.5770 C   0  0  0  0  0  0  0  0  0  0  0  0
  145.2220  161.4860  141.5570 O   0  0  0  0  0  0  0  0  0  0  0  0
  143.6670  160.2970  140.4120 C   0  0  0  0  0  0  0  0  0  0  0  0
  144.8260  160.4540  139.5030 O   0  0  0  0  0  0  0  0  0  0  0  0
  137.1490  158.5050  138.3680 H   0  0  0  0  0  0  0  0  0  0  0  0
  135.7380  158.5730  140.1230 H   0  0  0  0  0  0  0  0  0  0  0  0
  138.6910  158.3190  141.7840 H   0  0  0  0  0  0  0  0  0  0  0  0
  141.2120  158.4430  142.2680 H   0  0  0  0  0  0  0  0  0  0  0  0
  143.7450  158.1650  139.6940 H   0  0  0  0  0  0  0  0  0  0  0  0
  145.3430  158.9890  142.1620 H   0  0  0  0  0  0  0  0  0  0  0  0
  144.5330  160.2190  144.1000 H   0  0  0  0  0  0  0  0  0  0  0  0
  144.2670  158.4580  144.1850 H   0  0  0  0  0  0  0  0  0  0  0  0
  142.4680  160.3010  144.3850 H   0  0  0  0  0  0  0  0  0  0  0  0
  143.1760  161.1100  142.0810 H   0  0  0  0  0  0  0  0  0  0  0  0
  145.1150  162.1840  142.1800 H   0  0  0  0  0  0  0  0  0  0  0  0
  142.8430  160.9290  140.0830 H   0  0  0  0  0  0  0  0  0  0  0  0
  144.5350  160.3830  138.6140 H   0  0  0  0  0  0  0  0  0  0  0  0
  1  2  2  0  0  0  0
  2  3  1  0  0  0  0
  3  4  2  0  0  0  0
  4  5  1  0  0  0  0
  5  6  1  0  0  0  0
  4  7  1  0  0  0  0
  7  8  2  0  0  0  0
  2  9  1  0  0  0  0
  8  9  1  0  0  0  0
  9 10  1  0  0  0  0
 10 11  1  0  0  0  0
 11 12  1  0  0  0  0
 12 13  1  0  0  0  0
 13 14  1  0  0  0  0
 12 15  1  0  0  0  0
 15 16  1  0  0  0  0
 10 17  1  0  0  0  0
 15 17  1  0  0  0  0
 17 18  1  0  0  0  0
  5 19  1  0  0  0  0
  6 20  1  0  0  0  0
  7 21  1  0  0  0  0
  8 22  1  0  0  0  0
 10 23  1  0  0  0  0
 12 24  1  0  0  0  0
 13 25  1  0  0  0  0
 13 26  1  0  0  0  0
 14 27  1  0  0  0  0
 15 28  1  0  0  0  0
 16 29  1  0  0  0  0
 17 30  1  0  0  0  0
 18 31  1  0  0  0  0
M  END
$$$$
