8QUD
  PyMOL3.1          3D                             0

108124  0  0  0  0  0  0  0  0999 V2000
  153.1290  117.7980  151.9240 C   0  0  0  0  0  0  0  0  0  0  0  0
  153.4720  115.5710  154.3560 N   0  0  0  0  0  0  0  0  0  0  0  0
  150.9350  115.1040  149.7310 O   0  0  0  0  0  0  0  0  0  0  0  0
  153.5140  116.4690  151.8080 C   0  0  0  0  0  0  0  0  0  0  0  0
  154.6350  114.8080  157.7850 N   0  0  0  0  0  0  0  0  0  0  0  0
  154.6570  115.9570  152.4160 O   0  0  0  0  0  0  0  0  0  0  0  0
  152.7220  115.6130  151.0560 C   0  0  0  0  0  0  0  0  0  0  0  0
  155.3250  114.6710  159.9010 N   0  0  0  0  0  0  0  0  0  0  0  0
  152.6310  113.6770  157.9230 O   0  0  0  0  0  0  0  0  0  0  0  0
  151.5860  116.0820  150.4310 C   0  0  0  0  0  0  0  0  0  0  0  0
  156.5770  115.9320  158.4490 O   0  0  0  0  0  0  0  0  0  0  0  0
  151.1850  117.4010  150.5330 C   0  0  0  0  0  0  0  0  0  0  0  0
  151.9760  118.2590  151.2910 C   0  0  0  0  0  0  0  0  0  0  0  0
  151.8180  113.9510  149.6340 C   0  0  0  0  0  0  0  0  0  0  0  0
  152.8390  114.1730  150.7260 C   0  0  0  0  0  0  0  0  0  0  0  0
  154.1460  113.4350  150.7330 C   0  0  0  0  0  0  0  0  0  0  0  0
  153.0970  113.1050  151.7480 C   0  0  0  0  0  0  0  0  0  0  0  0
  154.6350  115.6760  153.7490 C   0  0  0  0  0  0  0  0  0  0  0  0
  155.8610  115.5130  154.3630 C   0  0  0  0  0  0  0  0  0  0  0  0
  155.8660  115.2250  155.7130 C   0  0  0  0  0  0  0  0  0  0  0  0
  154.6640  115.1090  156.3790 C   0  0  0  0  0  0  0  0  0  0  0  0
  153.4900  115.2870  155.6690 C   0  0  0  0  0  0  0  0  0  0  0  0
  155.6310  115.2150  158.7140 C   0  0  0  0  0  0  0  0  0  0  0  0
  154.1070  113.8780  159.8690 C   0  0  0  0  0  0  0  0  0  0  0  0
  153.6520  114.0770  158.4280 C   0  0  0  0  0  0  0  0  0  0  0  0
  154.3270  112.4060  160.2030 C   0  0  0  0  0  0  0  0  0  0  0  0
  153.0960  111.7330  160.7850 C   0  0  0  0  0  0  0  0  0  0  0  0
  146.2120  153.1240  151.9210 C   0  0  0  0  0  0  0  0  0  0  0  0
  148.4410  153.4710  154.3510 N   0  0  0  0  0  0  0  0  0  0  0  0
  148.9060  150.9290  149.7290 O   0  0  0  0  0  0  0  0  0  0  0  0
  147.5410  153.5100  151.8040 C   0  0  0  0  0  0  0  0  0  0  0  0
  149.2050  154.6390  157.7790 N   0  0  0  0  0  0  0  0  0  0  0  0
  148.0520  154.6540  152.4100 O   0  0  0  0  0  0  0  0  0  0  0  0
  148.3970  152.7170  151.0520 C   0  0  0  0  0  0  0  0  0  0  0  0
  149.3430  155.3310  159.8940 N   0  0  0  0  0  0  0  0  0  0  0  0
  150.3380  152.6360  157.9180 O   0  0  0  0  0  0  0  0  0  0  0  0
  147.9280  151.5800  150.4290 C   0  0  0  0  0  0  0  0  0  0  0  0
  148.0800  156.5810  158.4410 O   0  0  0  0  0  0  0  0  0  0  0  0
  146.6100  151.1780  150.5320 C   0  0  0  0  0  0  0  0  0  0  0  0
  145.7520  151.9700  151.2900 C   0  0  0  0  0  0  0  0  0  0  0  0
  150.0590  151.8130  149.6300 C   0  0  0  0  0  0  0  0  0  0  0  0
  149.8370  152.8350  150.7210 C   0  0  0  0  0  0  0  0  0  0  0  0
  150.5740  154.1430  150.7260 C   0  0  0  0  0  0  0  0  0  0  0  0
  150.9050  153.0950  151.7420 C   0  0  0  0  0  0  0  0  0  0  0  0
  148.3340  154.6330  153.7430 C   0  0  0  0  0  0  0  0  0  0  0  0
  148.4970  155.8600  154.3560 C   0  0  0  0  0  0  0  0  0  0  0  0
  148.7860  155.8670  155.7050 C   0  0  0  0  0  0  0  0  0  0  0  0
  148.9030  154.6660  156.3730 C   0  0  0  0  0  0  0  0  0  0  0  0
  148.7260  153.4910  155.6640 C   0  0  0  0  0  0  0  0  0  0  0  0
  148.7980  155.6360  158.7070 C   0  0  0  0  0  0  0  0  0  0  0  0
  150.1370  154.1140  159.8630 C   0  0  0  0  0  0  0  0  0  0  0  0
  149.9370  153.6570  158.4220 C   0  0  0  0  0  0  0  0  0  0  0  0
  151.6090  154.3350  160.1950 C   0  0  0  0  0  0  0  0  0  0  0  0
  152.2830  153.1060  160.7780 C   0  0  0  0  0  0  0  0  0  0  0  0
  117.9100  110.8930  151.9390 C   0  0  0  0  0  0  0  0  0  0  0  0
  115.6860  110.5430  154.3720 N   0  0  0  0  0  0  0  0  0  0  0  0
  115.2100  113.0830  149.7500 O   0  0  0  0  0  0  0  0  0  0  0  0
  116.5820  110.5050  151.8240 C   0  0  0  0  0  0  0  0  0  0  0  0
  114.9280  109.3760  157.8010 N   0  0  0  0  0  0  0  0  0  0  0  0
  116.0730  109.3600  152.4310 O   0  0  0  0  0  0  0  0  0  0  0  0
  115.7240  111.2960  151.0730 C   0  0  0  0  0  0  0  0  0  0  0  0
  114.7940  108.6840  159.9170 N   0  0  0  0  0  0  0  0  0  0  0  0
  113.7930  111.3770  157.9410 O   0  0  0  0  0  0  0  0  0  0  0  0
  116.1900  112.4330  150.4490 C   0  0  0  0  0  0  0  0  0  0  0  0
  116.0560  107.4360  158.4630 O   0  0  0  0  0  0  0  0  0  0  0  0
  117.5080  112.8370  150.5500 C   0  0  0  0  0  0  0  0  0  0  0  0
  118.3680  112.0470  151.3070 C   0  0  0  0  0  0  0  0  0  0  0  0
  114.0590  112.1970  149.6530 C   0  0  0  0  0  0  0  0  0  0  0  0
  114.2840  111.1760  150.7440 C   0  0  0  0  0  0  0  0  0  0  0  0
  113.5490  109.8670  150.7500 C   0  0  0  0  0  0  0  0  0  0  0  0
  113.2170  110.9150  151.7660 C   0  0  0  0  0  0  0  0  0  0  0  0
  115.7930  109.3810  153.7640 C   0  0  0  0  0  0  0  0  0  0  0  0
  115.6330  108.1540  154.3780 C   0  0  0  0  0  0  0  0  0  0  0  0
  115.3460  108.1470  155.7280 C   0  0  0  0  0  0  0  0  0  0  0  0
  115.2280  109.3490  156.3950 C   0  0  0  0  0  0  0  0  0  0  0  0
  115.4030  110.5230  155.6860 C   0  0  0  0  0  0  0  0  0  0  0  0
  115.3380  108.3800  158.7290 C   0  0  0  0  0  0  0  0  0  0  0  0
  113.9980  109.9000  159.8860 C   0  0  0  0  0  0  0  0  0  0  0  0
  114.1950  110.3570  158.4450 C   0  0  0  0  0  0  0  0  0  0  0  0
  112.5270  109.6770  160.2210 C   0  0  0  0  0  0  0  0  0  0  0  0
  111.8520  110.9060  160.8040 C   0  0  0  0  0  0  0  0  0  0  0  0
  110.9290  146.1170  151.9020 C   0  0  0  0  0  0  0  0  0  0  0  0
  110.5740  148.3440  154.3330 N   0  0  0  0  0  0  0  0  0  0  0  0
  113.1170  148.8180  149.7120 O   0  0  0  0  0  0  0  0  0  0  0  0
  110.5390  147.4450  151.7850 C   0  0  0  0  0  0  0  0  0  0  0  0
  109.4020  149.1040  157.7590 N   0  0  0  0  0  0  0  0  0  0  0  0
  109.3940  147.9530  152.3910 O   0  0  0  0  0  0  0  0  0  0  0  0
  111.3300  148.3030  151.0340 C   0  0  0  0  0  0  0  0  0  0  0  0
  108.7080  149.2390  159.8740 N   0  0  0  0  0  0  0  0  0  0  0  0
  111.4020  150.2410  157.9010 O   0  0  0  0  0  0  0  0  0  0  0  0
  112.4680  147.8380  150.4110 C   0  0  0  0  0  0  0  0  0  0  0  0
  107.4630  147.9730  158.4200 O   0  0  0  0  0  0  0  0  0  0  0  0
  112.8740  146.5200  150.5140 C   0  0  0  0  0  0  0  0  0  0  0  0
  112.0840  145.6600  151.2710 C   0  0  0  0  0  0  0  0  0  0  0  0
  112.2310  149.9680  149.6130 C   0  0  0  0  0  0  0  0  0  0  0  0
  111.2090  149.7430  150.7040 C   0  0  0  0  0  0  0  0  0  0  0  0
  109.8990  150.4760  150.7080 C   0  0  0  0  0  0  0  0  0  0  0  0
  110.9450  150.8100  151.7250 C   0  0  0  0  0  0  0  0  0  0  0  0
  109.4120  148.2350  153.7240 C   0  0  0  0  0  0  0  0  0  0  0  0
  108.1850  148.3940  154.3360 C   0  0  0  0  0  0  0  0  0  0  0  0
  108.1760  148.6820  155.6850 C   0  0  0  0  0  0  0  0  0  0  0  0
  109.3770  148.8020  156.3540 C   0  0  0  0  0  0  0  0  0  0  0  0
  110.5520  148.6280  155.6460 C   0  0  0  0  0  0  0  0  0  0  0  0
  108.4060  148.6940  158.6870 C   0  0  0  0  0  0  0  0  0  0  0  0
  109.9230  150.0360  159.8440 C   0  0  0  0  0  0  0  0  0  0  0  0
  110.3810  149.8380  158.4040 C   0  0  0  0  0  0  0  0  0  0  0  0
  109.6980  151.5070  160.1770 C   0  0  0  0  0  0  0  0  0  0  0  0
  110.9250  152.1850  160.7610 C   0  0  0  0  0  0  0  0  0  0  0  0
  1  4  2  0  0  0  0
  4  6  1  0  0  0  0
  4  7  1  0  0  0  0
  3 10  1  0  0  0  0
  7 10  2  0  0  0  0
 10 12  1  0  0  0  0
  1 13  1  0  0  0  0
 12 13  2  0  0  0  0
  3 14  1  0  0  0  0
  7 15  1  0  0  0  0
 14 15  1  0  0  0  0
 15 16  1  0  0  0  0
 15 17  1  0  0  0  0
 16 17  1  0  0  0  0
  2 18  2  0  0  0  0
  6 18  1  0  0  0  0
 18 19  1  0  0  0  0
 19 20  2  0  0  0  0
  5 21  1  0  0  0  0
 20 21  1  0  0  0  0
  2 22  1  0  0  0  0
 21 22  2  0  0  0  0
  5 23  1  0  0  0  0
  8 23  1  0  0  0  0
 11 23  2  0  0  0  0
  8 24  1  0  0  0  0
  5 25  1  0  0  0  0
  9 25  2  0  0  0  0
 24 25  1  0  0  0  0
 24 26  1  0  0  0  0
 26 27  1  0  0  0  0
 28 31  2  0  0  0  0
 31 33  1  0  0  0  0
 31 34  1  0  0  0  0
 30 37  1  0  0  0  0
 34 37  2  0  0  0  0
 37 39  1  0  0  0  0
 28 40  1  0  0  0  0
 39 40  2  0  0  0  0
 30 41  1  0  0  0  0
 34 42  1  0  0  0  0
 41 42  1  0  0  0  0
 42 43  1  0  0  0  0
 42 44  1  0  0  0  0
 43 44  1  0  0  0  0
 29 45  2  0  0  0  0
 33 45  1  0  0  0  0
 45 46  1  0  0  0  0
 46 47  2  0  0  0  0
 32 48  1  0  0  0  0
 47 48  1  0  0  0  0
 29 49  1  0  0  0  0
 48 49  2  0  0  0  0
 32 50  1  0  0  0  0
 35 50  1  0  0  0  0
 38 50  2  0  0  0  0
 35 51  1  0  0  0  0
 32 52  1  0  0  0  0
 36 52  2  0  0  0  0
 51 52  1  0  0  0  0
 51 53  1  0  0  0  0
 53 54  1  0  0  0  0
 55 58  2  0  0  0  0
 58 60  1  0  0  0  0
 58 61  1  0  0  0  0
 57 64  1  0  0  0  0
 61 64  2  0  0  0  0
 64 66  1  0  0  0  0
 55 67  1  0  0  0  0
 66 67  2  0  0  0  0
 57 68  1  0  0  0  0
 61 69  1  0  0  0  0
 68 69  1  0  0  0  0
 69 70  1  0  0  0  0
 69 71  1  0  0  0  0
 70 71  1  0  0  0  0
 56 72  2  0  0  0  0
 60 72  1  0  0  0  0
 72 73  1  0  0  0  0
 73 74  2  0  0  0  0
 59 75  1  0  0  0  0
 74 75  1  0  0  0  0
 56 76  1  0  0  0  0
 75 76  2  0  0  0  0
 59 77  1  0  0  0  0
 62 77  1  0  0  0  0
 65 77  2  0  0  0  0
 62 78  1  0  0  0  0
 59 79  1  0  0  0  0
 63 79  2  0  0  0  0
 78 79  1  0  0  0  0
 78 80  1  0  0  0  0
 80 81  1  0  0  0  0
 82 85  2  0  0  0  0
 85 87  1  0  0  0  0
 85 88  1  0  0  0  0
 84 91  1  0  0  0  0
 88 91  2  0  0  0  0
 91 93  1  0  0  0  0
 82 94  1  0  0  0  0
 93 94  2  0  0  0  0
 84 95  1  0  0  0  0
 88 96  1  0  0  0  0
 95 96  1  0  0  0  0
 96 97  1  0  0  0  0
 96 98  1  0  0  0  0
 97 98  1  0  0  0  0
 83 99  2  0  0  0  0
 87 99  1  0  0  0  0
 99100  1  0  0  0  0
100101  2  0  0  0  0
 86102  1  0  0  0  0
101102  1  0  0  0  0
 83103  1  0  0  0  0
102103  2  0  0  0  0
 86104  1  0  0  0  0
 89104  1  0  0  0  0
 92104  2  0  0  0  0
 89105  1  0  0  0  0
 86106  1  0  0  0  0
 90106  2  0  0  0  0
105106  1  0  0  0  0
105107  1  0  0  0  0
107108  1  0  0  0  0
M  END
$$$$
