8FN0
  PyMOL3.1          3D                             0

 33 37  0  0  0  0  0  0  0  0999 V2000
  104.9760  104.8250  130.3180 C   0  0  0  0  0  0  0  0  0  0  0  0
  107.9890   99.7190  128.4020 N   0  0  0  0  0  0  0  0  0  0  0  0
  105.8350  103.7180  130.5730 O   0  0  0  0  0  0  0  0  0  0  0  0
  107.0270  103.9630  131.2000 C   0  0  0  0  0  0  0  0  0  0  0  0
  105.9580   99.3280  127.3530 N   0  0  0  0  0  0  0  0  0  0  0  0
  114.0040   98.0580  122.6100 O   0  0  0  0  0  0  0  0  0  0  0  0
  108.0480  103.0380  130.9470 C   0  0  0  0  0  0  0  0  0  0  0  0
  105.7180   98.7600  125.0740 N   0  0  0  0  0  0  0  0  0  0  0  0
  109.2820  103.2560  131.5400 C   0  0  0  0  0  0  0  0  0  0  0  0
  111.2070   98.9750  124.3350 N   0  0  0  0  0  0  0  0  0  0  0  0
  109.4980  104.3340  132.3830 C   0  0  0  0  0  0  0  0  0  0  0  0
  108.4790  105.2260  132.6240 C   0  0  0  0  0  0  0  0  0  0  0  0
  107.2400  105.0510  132.0370 C   0  0  0  0  0  0  0  0  0  0  0  0
  107.8170  101.8790  130.0040 C   0  0  0  0  0  0  0  0  0  0  0  0
  107.8520  100.5180  130.6910 C   0  0  0  0  0  0  0  0  0  0  0  0
  107.5040   99.3990  129.7440 C   0  0  0  0  0  0  0  0  0  0  0  0
  109.1960  100.5390  128.4600 C   0  0  0  0  0  0  0  0  0  0  0  0
  108.8220  101.9120  128.8610 C   0  0  0  0  0  0  0  0  0  0  0  0
  107.2940   99.3900  127.2580 C   0  0  0  0  0  0  0  0  0  0  0  0
  105.2040   99.0210  126.2820 C   0  0  0  0  0  0  0  0  0  0  0  0
  107.0750   98.8150  124.9080 C   0  0  0  0  0  0  0  0  0  0  0  0
  107.9200   99.1330  125.9930 C   0  0  0  0  0  0  0  0  0  0  0  0
  109.3170   99.1710  125.7750 C   0  0  0  0  0  0  0  0  0  0  0  0
  109.8590   98.9160  124.5240 C   0  0  0  0  0  0  0  0  0  0  0  0
  108.9810   98.6000  123.4520 C   0  0  0  0  0  0  0  0  0  0  0  0
  107.6320   98.5500  123.6420 C   0  0  0  0  0  0  0  0  0  0  0  0
  112.1160   99.1110  125.4680 C   0  0  0  0  0  0  0  0  0  0  0  0
  111.7960   98.9380  123.0030 C   0  0  0  0  0  0  0  0  0  0  0  0
  113.2810   99.2000  123.0320 C   0  0  0  0  0  0  0  0  0  0  0  0
  103.7310   98.9610  126.4550 C   0  0  0  0  0  0  0  0  0  0  0  0
  103.1410   98.6250  127.7790 C   0  0  0  0  0  0  0  0  0  0  0  0
  103.0060   99.9950  127.2440 C   0  0  0  0  0  0  0  0  0  0  0  0
  103.1510   98.4610  125.3390 F   0  0  0  0  0  0  0  0  0  0  0  0
  1  3  1  0  0  0  0
  3  4  1  0  0  0  0
  4  7  2  0  0  0  0
  7  9  1  0  0  0  0
  9 11  2  0  0  0  0
 11 12  1  0  0  0  0
  4 13  1  0  0  0  0
 12 13  2  0  0  0  0
  7 14  1  0  0  0  0
 14 15  1  0  0  0  0
  2 16  1  0  0  0  0
 15 16  1  0  0  0  0
  2 17  1  0  0  0  0
 14 18  1  0  0  0  0
 17 18  1  0  0  0  0
  2 19  1  0  0  0  0
  5 19  2  0  0  0  0
  5 20  1  0  0  0  0
  8 20  2  0  0  0  0
  8 21  1  0  0  0  0
 19 22  1  0  0  0  0
 21 22  1  0  0  0  0
 22 23  2  0  0  0  0
 10 24  1  0  0  0  0
 23 24  1  0  0  0  0
 24 25  2  0  0  0  0
 21 26  2  0  0  0  0
 25 26  1  0  0  0  0
 10 27  1  0  0  0  0
 10 28  1  0  0  0  0
  6 29  1  0  0  0  0
 28 29  1  0  0  0  0
 20 30  1  0  0  0  0
 30 31  1  0  0  0  0
 30 32  1  0  0  0  0
 31 32  1  0  0  0  0
 30 33  1  0  0  0  0
M  END
$$$$
