8W9B
  PyMOL3.1          3D                             0

 51 54  0  0  0  0  0  0  0  0999 V2000
   88.6830   86.0670   99.5390 C   0  0  0  0  0  0  0  0  0  0  0  0
   89.9080   85.5700   98.7860 C   0  0  0  0  0  0  0  0  0  0  0  0
   90.6990   84.4980   99.1540 C   0  0  0  0  0  0  0  0  0  0  0  0
   90.4500   83.6540  100.3900 C   0  0  0  0  0  0  0  0  0  0  0  0
   89.2790   82.8620  100.1270 N   0  0  0  0  0  0  0  0  0  0  0  0
   88.0830   82.9720  100.9330 C   0  0  0  0  0  0  0  0  0  0  0  0
   86.9800   82.1220  100.5600 N   0  0  0  0  0  0  0  0  0  0  0  0
   85.7350   82.1340  101.2930 C   0  0  0  0  0  0  0  0  0  0  0  0
   85.6940   81.5120  102.5310 C   0  0  0  0  0  0  0  0  0  0  0  0
   84.5030   81.4910  103.2650 C   0  0  0  0  0  0  0  0  0  0  0  0
   83.3660   82.0820  102.7460 C   0  0  0  0  0  0  0  0  0  0  0  0
   82.2320   81.8980  103.7730 C   0  0  0  0  0  0  0  0  0  0  0  0
   81.1200   82.2840  103.6520 O   0  0  0  0  0  0  0  0  0  0  0  0
   82.7650   81.1720  104.9050 N   0  0  0  0  0  0  0  0  0  0  0  0
   84.1580   80.8960  104.6410 C   0  0  0  0  0  0  0  0  0  0  0  0
   83.4060   82.7040  101.4830 C   0  0  0  0  0  0  0  0  0  0  0  0
   84.5940   82.7280  100.7560 C   0  0  0  0  0  0  0  0  0  0  0  0
   87.9990   83.7190  101.8470 O   0  0  0  0  0  0  0  0  0  0  0  0
   91.5850   82.7170  100.7530 C   0  0  0  0  0  0  0  0  0  0  0  0
   92.8390   83.5050  101.1210 C   0  0  0  0  0  0  0  0  0  0  0  0
   91.1350   81.7870  101.8820 C   0  0  0  0  0  0  0  0  0  0  0  0
   91.6590   84.3660   98.2550 O   0  0  0  0  0  0  0  0  0  0  0  0
   91.5450   85.3230   97.2880 C   0  0  0  0  0  0  0  0  0  0  0  0
   90.4530   86.1130   97.5740 C   0  0  0  0  0  0  0  0  0  0  0  0
   90.1070   87.1840   96.7280 C   0  0  0  0  0  0  0  0  0  0  0  0
   90.8730   87.4480   95.5960 C   0  0  0  0  0  0  0  0  0  0  0  0
   91.9840   86.6500   95.2990 C   0  0  0  0  0  0  0  0  0  0  0  0
   92.3240   85.5930   96.1350 C   0  0  0  0  0  0  0  0  0  0  0  0
   90.5360   88.4890   94.7850 F   0  0  0  0  0  0  0  0  0  0  0  0
   88.3980   86.9170   99.1690 H   0  0  0  0  0  0  0  0  0  0  0  0
   88.9030   86.1700  100.4780 H   0  0  0  0  0  0  0  0  0  0  0  0
   87.9700   85.4150   99.4450 H   0  0  0  0  0  0  0  0  0  0  0  0
   90.2850   84.2430  101.1400 H   0  0  0  0  0  0  0  0  0  0  0  0
   89.2990   82.3020   99.4770 H   0  0  0  0  0  0  0  0  0  0  0  0
   87.0740   81.5880   99.8960 H   0  0  0  0  0  0  0  0  0  0  0  0
   86.4570   81.1170  102.8740 H   0  0  0  0  0  0  0  0  0  0  0  0
   82.3320   80.9420  105.6110 H   0  0  0  0  0  0  0  0  0  0  0  0
   84.7140   81.3040  105.3220 H   0  0  0  0  0  0  0  0  0  0  0  0
   84.3020   79.9370  104.6230 H   0  0  0  0  0  0  0  0  0  0  0  0
   82.6420   83.1060  101.1390 H   0  0  0  0  0  0  0  0  0  0  0  0
   84.6290   83.1380   99.9220 H   0  0  0  0  0  0  0  0  0  0  0  0
   91.7830   82.1730   99.9750 H   0  0  0  0  0  0  0  0  0  0  0  0
   92.8380   84.3590  100.6640 H   0  0  0  0  0  0  0  0  0  0  0  0
   92.8540   83.6540  102.0780 H   0  0  0  0  0  0  0  0  0  0  0  0
   93.6260   83.0060  100.8550 H   0  0  0  0  0  0  0  0  0  0  0  0
   91.7860   81.7980  102.5970 H   0  0  0  0  0  0  0  0  0  0  0  0
   91.0410   80.8840  101.5390 H   0  0  0  0  0  0  0  0  0  0  0  0
   90.2850   82.0870  102.2370 H   0  0  0  0  0  0  0  0  0  0  0  0
   89.3690   87.7130   96.9270 H   0  0  0  0  0  0  0  0  0  0  0  0
   92.4930   86.8270   94.5420 H   0  0  0  0  0  0  0  0  0  0  0  0
   93.0630   85.0650   95.9380 H   0  0  0  0  0  0  0  0  0  0  0  0
  1  2  1  0  0  0  0
  2  3  2  0  0  0  0
  3  4  1  0  0  0  0
  4  5  1  0  0  0  0
  5  6  1  0  0  0  0
  6  7  1  0  0  0  0
  7  8  1  0  0  0  0
  8  9  2  0  0  0  0
  9 10  1  0  0  0  0
 10 11  2  0  0  0  0
 11 12  1  0  0  0  0
 12 13  2  0  0  0  0
 12 14  1  0  0  0  0
 10 15  1  0  0  0  0
 14 15  1  0  0  0  0
 11 16  1  0  0  0  0
  8 17  1  0  0  0  0
 16 17  2  0  0  0  0
  6 18  2  0  0  0  0
  4 19  1  0  0  0  0
 19 20  1  0  0  0  0
 19 21  1  0  0  0  0
  3 22  1  0  0  0  0
 22 23  1  0  0  0  0
  2 24  1  0  0  0  0
 23 24  1  0  0  0  0
 24 25  2  0  0  0  0
 25 26  1  0  0  0  0
 26 27  2  0  0  0  0
 23 28  2  0  0  0  0
 27 28  1  0  0  0  0
 26 29  1  0  0  0  0
  1 30  1  0  0  0  0
  1 31  1  0  0  0  0
  1 32  1  0  0  0  0
  4 33  1  0  0  0  0
  5 34  1  0  0  0  0
  7 35  1  0  0  0  0
  9 36  1  0  0  0  0
 14 37  1  0  0  0  0
 15 38  1  0  0  0  0
 15 39  1  0  0  0  0
 16 40  1  0  0  0  0
 17 41  1  0  0  0  0
 19 42  1  0  0  0  0
 20 43  1  0  0  0  0
 20 44  1  0  0  0  0
 20 45  1  0  0  0  0
 21 46  1  0  0  0  0
 21 47  1  0  0  0  0
 21 48  1  0  0  0  0
 25 49  1  0  0  0  0
 27 50  1  0  0  0  0
 28 51  1  0  0  0  0
M  END
$$$$
