8UT1
  PyMOL3.1          3D                             0

 27 29  0  0  0  0  0  0  0  0999 V2000
  115.3170  136.1830  183.6580 Cl  0  0  0  0  0  0  0  0  0  0  0  0
  112.8110  138.0280  178.5760 C   0  0  0  0  0  0  0  0  0  0  0  0
  113.2250  140.2900  178.2110 N   0  0  0  0  0  0  0  0  0  0  0  0
  111.4950  138.8430  178.6340 C   0  0  0  0  0  0  0  0  0  0  0  0
  115.3440  136.9200  181.1610 N   0  0  0  0  0  0  0  0  0  0  0  0
  111.8440  140.0580  177.7840 C   0  0  0  0  0  0  0  0  0  0  0  0
  111.9900  139.6350  176.3360 C   0  0  0  0  0  0  0  0  0  0  0  0
  113.3460  138.9380  176.3020 C   0  0  0  0  0  0  0  0  0  0  0  0
  113.7350  138.9760  177.7820 C   0  0  0  0  0  0  0  0  0  0  0  0
  113.4140  137.6390  179.9090 C   0  0  0  0  0  0  0  0  0  0  0  0
  112.6390  137.4710  181.0430 C   0  0  0  0  0  0  0  0  0  0  0  0
  113.2050  137.0360  182.2240 C   0  0  0  0  0  0  0  0  0  0  0  0
  114.5540  136.7720  182.2100 C   0  0  0  0  0  0  0  0  0  0  0  0
  114.7570  137.3310  180.0300 C   0  0  0  0  0  0  0  0  0  0  0  0
  113.3040  140.4300  179.0560 H   0  0  0  0  0  0  0  0  0  0  0  0
  112.6660  137.1560  178.1770 H   0  0  0  0  0  0  0  0  0  0  0  0
  111.2040  140.7830  177.8670 H   0  0  0  0  0  0  0  0  0  0  0  0
  114.6760  138.7770  177.9090 H   0  0  0  0  0  0  0  0  0  0  0  0
  111.7280  137.6530  181.0090 H   0  0  0  0  0  0  0  0  0  0  0  0
  112.6970  136.9260  182.9950 H   0  0  0  0  0  0  0  0  0  0  0  0
  115.2900  137.4150  179.2720 H   0  0  0  0  0  0  0  0  0  0  0  0
  110.7440  138.3480  178.2710 H   0  0  0  0  0  0  0  0  0  0  0  0
  111.2590  139.0900  179.5420 H   0  0  0  0  0  0  0  0  0  0  0  0
  111.2750  139.0380  176.0650 H   0  0  0  0  0  0  0  0  0  0  0  0
  111.9660  140.3980  175.7370 H   0  0  0  0  0  0  0  0  0  0  0  0
  113.2840  138.0310  175.9630 H   0  0  0  0  0  0  0  0  0  0  0  0
  113.9850  139.4070  175.7430 H   0  0  0  0  0  0  0  0  0  0  0  0
  2  4  1  0  0  0  0
  3  6  1  0  0  0  0
  4  6  1  0  0  0  0
  6  7  1  0  0  0  0
  7  8  1  0  0  0  0
  2  9  1  0  0  0  0
  3  9  1  0  0  0  0
  8  9  1  0  0  0  0
  2 10  1  0  0  0  0
 10 11  2  0  0  0  0
 11 12  1  0  0  0  0
  1 13  1  0  0  0  0
  5 13  1  0  0  0  0
 12 13  2  0  0  0  0
  5 14  2  0  0  0  0
 10 14  1  0  0  0  0
  3 15  1  0  0  0  0
  2 16  1  0  0  0  0
  6 17  1  0  0  0  0
  9 18  1  0  0  0  0
 11 19  1  0  0  0  0
 12 20  1  0  0  0  0
 14 21  1  0  0  0  0
  4 22  1  0  0  0  0
  4 23  1  0  0  0  0
  7 24  1  0  0  0  0
  7 25  1  0  0  0  0
  8 26  1  0  0  0  0
  8 27  1  0  0  0  0
M  END
$$$$
