8X94
  PyMOL3.1          3D                             0

 23 25  0  0  0  0  0  0  0  0999 V2000
  161.0100  146.0370  141.7810 O   0  0  0  0  0  0  0  0  0  0  0  0
  159.8840  147.6630  147.6240 O   0  0  0  0  0  0  0  0  0  0  0  0
  158.9840  145.2770  141.8940 N   0  0  0  0  0  0  0  0  0  0  0  0
  157.8360  145.5260  143.9210 N   0  0  0  0  0  0  0  0  0  0  0  0
  159.5950  142.6690  135.5620 N   0  0  0  0  0  0  0  0  0  0  0  0
  156.6400  144.3880  142.0680 C   0  0  0  0  0  0  0  0  0  0  0  0
  157.8710  145.0840  142.6450 C   0  0  0  0  0  0  0  0  0  0  0  0
  160.0010  146.3130  143.7000 C   0  0  0  0  0  0  0  0  0  0  0  0
  160.0350  145.8750  142.4240 C   0  0  0  0  0  0  0  0  0  0  0  0
  158.8800  146.1310  144.4460 C   0  0  0  0  0  0  0  0  0  0  0  0
  159.0660  144.7930  140.5260 C   0  0  0  0  0  0  0  0  0  0  0  0
  155.4410  145.3240  142.1580 C   0  0  0  0  0  0  0  0  0  0  0  0
  156.3550  143.1020  142.8350 C   0  0  0  0  0  0  0  0  0  0  0  0
  161.1080  146.9520  144.2460 C   0  0  0  0  0  0  0  0  0  0  0  0
  158.8380  146.5790  145.7590 C   0  0  0  0  0  0  0  0  0  0  0  0
  158.5510  145.4820  139.4390 C   0  0  0  0  0  0  0  0  0  0  0  0
  159.7090  143.5830  140.3260 C   0  0  0  0  0  0  0  0  0  0  0  0
  159.9330  147.2100  146.3030 C   0  0  0  0  0  0  0  0  0  0  0  0
  161.0670  147.3960  145.5500 C   0  0  0  0  0  0  0  0  0  0  0  0
  158.6770  144.9470  138.1670 C   0  0  0  0  0  0  0  0  0  0  0  0
  159.8360  143.0510  139.0610 C   0  0  0  0  0  0  0  0  0  0  0  0
  159.3220  143.7330  137.9780 C   0  0  0  0  0  0  0  0  0  0  0  0
  159.4760  143.1270  136.5890 C   0  0  0  0  0  0  0  0  0  0  0  0
  3  7  1  0  0  0  0
  4  7  2  0  0  0  0
  6  7  1  0  0  0  0
  1  9  2  0  0  0  0
  3  9  1  0  0  0  0
  8  9  1  0  0  0  0
  4 10  1  0  0  0  0
  8 10  2  0  0  0  0
  3 11  1  0  0  0  0
  6 12  1  0  0  0  0
  6 13  1  0  0  0  0
  8 14  1  0  0  0  0
 10 15  1  0  0  0  0
 11 16  1  0  0  0  0
 11 17  2  0  0  0  0
  2 18  1  0  0  0  0
 15 18  2  0  0  0  0
 14 19  2  0  0  0  0
 18 19  1  0  0  0  0
 16 20  2  0  0  0  0
 17 21  1  0  0  0  0
 20 22  1  0  0  0  0
 21 22  2  0  0  0  0
  5 23  3  0  0  0  0
 22 23  1  0  0  0  0
M  END
$$$$
