8X94
  PyMOL3.1          3D                             0

 23 25  0  0  0  0  0  0  0  0999 V2000
  110.9910  125.9620  141.7800 O   0  0  0  0  0  0  0  0  0  0  0  0
  112.1150  124.3360  147.6230 O   0  0  0  0  0  0  0  0  0  0  0  0
  113.0170  126.7230  141.8930 N   0  0  0  0  0  0  0  0  0  0  0  0
  114.1640  126.4730  143.9200 N   0  0  0  0  0  0  0  0  0  0  0  0
  112.4040  129.3290  135.5610 N   0  0  0  0  0  0  0  0  0  0  0  0
  115.3610  127.6120  142.0690 C   0  0  0  0  0  0  0  0  0  0  0  0
  114.1300  126.9150  142.6450 C   0  0  0  0  0  0  0  0  0  0  0  0
  112.0000  125.6860  143.6990 C   0  0  0  0  0  0  0  0  0  0  0  0
  111.9660  126.1240  142.4230 C   0  0  0  0  0  0  0  0  0  0  0  0
  113.1200  125.8690  144.4450 C   0  0  0  0  0  0  0  0  0  0  0  0
  112.9350  127.2070  140.5250 C   0  0  0  0  0  0  0  0  0  0  0  0
  116.5590  126.6740  142.1520 C   0  0  0  0  0  0  0  0  0  0  0  0
  115.6490  128.8940  142.8420 C   0  0  0  0  0  0  0  0  0  0  0  0
  110.8920  125.0480  144.2450 C   0  0  0  0  0  0  0  0  0  0  0  0
  113.1620  125.4210  145.7580 C   0  0  0  0  0  0  0  0  0  0  0  0
  113.4520  126.5190  139.4390 C   0  0  0  0  0  0  0  0  0  0  0  0
  112.2890  128.4150  140.3250 C   0  0  0  0  0  0  0  0  0  0  0  0
  112.0660  124.7900  146.3020 C   0  0  0  0  0  0  0  0  0  0  0  0
  110.9320  124.6030  145.5480 C   0  0  0  0  0  0  0  0  0  0  0  0
  113.3250  127.0530  138.1660 C   0  0  0  0  0  0  0  0  0  0  0  0
  112.1620  128.9460  139.0590 C   0  0  0  0  0  0  0  0  0  0  0  0
  112.6780  128.2650  137.9770 C   0  0  0  0  0  0  0  0  0  0  0  0
  112.5240  128.8710  136.5880 C   0  0  0  0  0  0  0  0  0  0  0  0
  3  7  1  0  0  0  0
  4  7  2  0  0  0  0
  6  7  1  0  0  0  0
  1  9  2  0  0  0  0
  3  9  1  0  0  0  0
  8  9  1  0  0  0  0
  4 10  1  0  0  0  0
  8 10  2  0  0  0  0
  3 11  1  0  0  0  0
  6 12  1  0  0  0  0
  6 13  1  0  0  0  0
  8 14  1  0  0  0  0
 10 15  1  0  0  0  0
 11 16  1  0  0  0  0
 11 17  2  0  0  0  0
  2 18  1  0  0  0  0
 15 18  2  0  0  0  0
 14 19  2  0  0  0  0
 18 19  1  0  0  0  0
 16 20  2  0  0  0  0
 17 21  1  0  0  0  0
 20 22  1  0  0  0  0
 21 22  2  0  0  0  0
  5 23  3  0  0  0  0
 22 23  1  0  0  0  0
M  END
$$$$
