8EGN
  PyMOL3.1          3D                             0

 62 70  0  0  0  0  0  0  0  0999 V2000
   18.0720  -11.3103   23.2740 C   0  0  0  0  0  0  0  0  0  0  0  0
   17.4166  -11.4262   21.9795 N   0  0  0  0  0  0  0  0  0  0  0  0
   17.0522  -12.4145   21.1264 C   0  0  0  0  0  0  0  0  0  0  0  0
   17.2593  -13.9068   21.2904 C   0  0  0  0  0  0  0  0  0  0  0  0
   18.7732  -14.1973   21.4685 C   0  0  0  0  0  0  0  0  0  0  0  0
   16.7943  -14.6409   20.0098 C   0  0  0  0  0  0  0  0  0  0  0  0
   16.4827  -14.4053   22.5351 C   0  0  0  0  0  0  0  0  0  0  0  0
   16.4447  -11.8091   20.0602 C   0  0  0  0  0  0  0  0  0  0  0  0
   16.4742  -10.4203   20.3530 C   0  0  0  0  0  0  0  0  0  0  0  0
   15.9748   -9.4177   19.5433 N   0  0  0  0  0  0  0  0  0  0  0  0
   15.3156   -9.3536   18.3488 C   0  0  0  0  0  0  0  0  0  0  0  0
   14.7945   -8.1946   17.7718 C   0  0  0  0  0  0  0  0  0  0  0  0
   14.1735   -8.3640   16.5280 C   0  0  0  0  0  0  0  0  0  0  0  0
   13.7350   -7.1694   16.1362 N   0  0  0  0  0  0  0  0  0  0  0  0
   14.0620   -6.1948   17.1159 N   0  0  0  0  0  0  0  0  0  0  0  0
   14.6892   -6.7997   18.0699 C   0  0  0  0  0  0  0  0  0  0  0  0
   14.0527   -9.4973   15.8702 N   0  0  0  0  0  0  0  0  0  0  0  0
   14.5851  -10.5476   16.4949 C   0  0  0  0  0  0  0  0  0  0  0  0
   14.4691  -11.7352   15.8817 N   0  0  0  0  0  0  0  0  0  0  0  0
   14.6389  -12.9623   16.6162 C   0  0  0  0  0  0  0  0  0  0  0  0
   13.6352  -14.1186   16.3121 C   0  0  0  0  0  0  0  0  0  0  0  0
   13.4219  -14.1398   14.8908 O   0  0  0  0  0  0  0  0  0  0  0  0
   14.4460  -15.3693   16.7447 C   0  0  0  0  0  0  0  0  0  0  0  0
   15.8750  -14.9764   16.3768 C   0  0  0  0  0  0  0  0  0  0  0  0
   15.9762  -13.6005   16.3026 C   0  0  0  0  0  0  0  0  0  0  0  0
   17.1563  -12.9660   15.9833 C   0  0  0  0  0  0  0  0  0  0  0  0
   18.2795  -13.7457   15.7386 C   0  0  0  0  0  0  0  0  0  0  0  0
   18.1942  -15.1292   15.8164 C   0  0  0  0  0  0  0  0  0  0  0  0
   16.9909  -15.7569   16.1339 C   0  0  0  0  0  0  0  0  0  0  0  0
   15.1981  -10.5130   17.6946 N   0  0  0  0  0  0  0  0  0  0  0  0
   17.0525  -10.1825   21.4770 N   0  0  0  0  0  0  0  0  0  0  0  0
  -36.9188    3.1079   26.3432 C   0  0  0  0  0  0  0  0  0  0  0  0
  -36.5628    1.9926   27.2116 N   0  0  0  0  0  0  0  0  0  0  0  0
  -36.8621    0.6655   27.2704 C   0  0  0  0  0  0  0  0  0  0  0  0
  -37.7546   -0.1256   26.3138 C   0  0  0  0  0  0  0  0  0  0  0  0
  -39.1666    0.4884   26.2713 C   0  0  0  0  0  0  0  0  0  0  0  0
  -37.9219   -1.5692   26.8239 C   0  0  0  0  0  0  0  0  0  0  0  0
  -37.1729   -0.1255   24.8788 C   0  0  0  0  0  0  0  0  0  0  0  0
  -36.1981    0.1728   28.3615 C   0  0  0  0  0  0  0  0  0  0  0  0
  -35.5031    1.2721   28.9224 C   0  0  0  0  0  0  0  0  0  0  0  0
  -34.7097    1.2434   30.0358 N   0  0  0  0  0  0  0  0  0  0  0  0
  -34.2698    0.3286   30.9223 C   0  0  0  0  0  0  0  0  0  0  0  0
  -33.3145    0.5400   31.9226 C   0  0  0  0  0  0  0  0  0  0  0  0
  -33.0164   -0.5798   32.7049 C   0  0  0  0  0  0  0  0  0  0  0  0
  -32.0697   -0.1981   33.5925 N   0  0  0  0  0  0  0  0  0  0  0  0
  -31.7393    1.1578   33.4017 N   0  0  0  0  0  0  0  0  0  0  0  0
  -32.4582    1.5803   32.4140 C   0  0  0  0  0  0  0  0  0  0  0  0
  -33.5842   -1.7755   32.5799 N   0  0  0  0  0  0  0  0  0  0  0  0
  -34.4861   -1.8592   31.5969 C   0  0  0  0  0  0  0  0  0  0  0  0
  -35.0957   -3.0247   31.3791 N   0  0  0  0  0  0  0  0  0  0  0  0
  -36.2371   -3.1041   30.4980 C   0  0  0  0  0  0  0  0  0  0  0  0
  -36.3794   -4.4535   29.7398 C   0  0  0  0  0  0  0  0  0  0  0  0
  -35.9556   -5.4749   30.6645 O   0  0  0  0  0  0  0  0  0  0  0  0
  -37.9059   -4.5470   29.4901 C   0  0  0  0  0  0  0  0  0  0  0  0
  -38.4710   -3.8716   30.7327 C   0  0  0  0  0  0  0  0  0  0  0  0
  -37.5175   -3.0452   31.2964 C   0  0  0  0  0  0  0  0  0  0  0  0
  -37.7590   -2.3158   32.4473 C   0  0  0  0  0  0  0  0  0  0  0  0
  -39.0104   -2.4126   33.0435 C   0  0  0  0  0  0  0  0  0  0  0  0
  -39.9776   -3.2386   32.4728 C   0  0  0  0  0  0  0  0  0  0  0  0
  -39.7121   -3.9764   31.3205 C   0  0  0  0  0  0  0  0  0  0  0  0
  -34.8347   -0.8619   30.7757 N   0  0  0  0  0  0  0  0  0  0  0  0
  -35.7118    2.3627   28.2567 N   0  0  0  0  0  0  0  0  0  0  0  0
  1  2  1  0  0  0  0
  2  3  1  0  0  0  0
  3  4  1  0  0  0  0
  4  5  1  0  0  0  0
  4  6  1  0  0  0  0
  4  7  1  0  0  0  0
  3  8  2  0  0  0  0
  8  9  1  0  0  0  0
  9 10  1  0  0  0  0
 10 11  1  0  0  0  0
 11 12  1  0  0  0  0
 12 13  2  0  0  0  0
 13 14  1  0  0  0  0
 14 15  1  0  0  0  0
 12 16  1  0  0  0  0
 15 16  2  0  0  0  0
 13 17  1  0  0  0  0
 17 18  2  0  0  0  0
 18 19  1  0  0  0  0
 19 20  1  0  0  0  0
 20 21  1  0  0  0  0
 21 22  1  0  0  0  0
 21 23  1  0  0  0  0
 23 24  1  0  0  0  0
 20 25  1  0  0  0  0
 24 25  1  0  0  0  0
 25 26  2  0  0  0  0
 26 27  1  0  0  0  0
 27 28  2  0  0  0  0
 24 29  2  0  0  0  0
 28 29  1  0  0  0  0
 11 30  2  0  0  0  0
 18 30  1  0  0  0  0
  2 31  1  0  0  0  0
  9 31  2  0  0  0  0
 32 33  1  0  0  0  0
 33 34  1  0  0  0  0
 34 35  1  0  0  0  0
 35 36  1  0  0  0  0
 35 37  1  0  0  0  0
 35 38  1  0  0  0  0
 34 39  2  0  0  0  0
 39 40  1  0  0  0  0
 40 41  1  0  0  0  0
 41 42  1  0  0  0  0
 42 43  1  0  0  0  0
 43 44  2  0  0  0  0
 44 45  1  0  0  0  0
 45 46  1  0  0  0  0
 43 47  1  0  0  0  0
 46 47  2  0  0  0  0
 44 48  1  0  0  0  0
 48 49  2  0  0  0  0
 49 50  1  0  0  0  0
 50 51  1  0  0  0  0
 51 52  1  0  0  0  0
 52 53  1  0  0  0  0
 52 54  1  0  0  0  0
 54 55  1  0  0  0  0
 51 56  1  0  0  0  0
 55 56  1  0  0  0  0
 56 57  2  0  0  0  0
 57 58  1  0  0  0  0
 58 59  2  0  0  0  0
 55 60  2  0  0  0  0
 59 60  1  0  0  0  0
 42 61  2  0  0  0  0
 49 61  1  0  0  0  0
 33 62  1  0  0  0  0
 40 62  2  0  0  0  0
M  END
$$$$
