8EGN
  PyMOL3.1          3D                             0

 31 35  0  0  0  0  0  0  0  0999 V2000
   18.0720  -11.3103   23.2740 C   0  0  0  0  0  0  0  0  0  0  0  0
   17.4166  -11.4262   21.9795 N   0  0  0  0  0  0  0  0  0  0  0  0
   17.0522  -12.4145   21.1264 C   0  0  0  0  0  0  0  0  0  0  0  0
   17.2593  -13.9068   21.2904 C   0  0  0  0  0  0  0  0  0  0  0  0
   18.7732  -14.1973   21.4685 C   0  0  0  0  0  0  0  0  0  0  0  0
   16.7943  -14.6409   20.0098 C   0  0  0  0  0  0  0  0  0  0  0  0
   16.4827  -14.4053   22.5351 C   0  0  0  0  0  0  0  0  0  0  0  0
   16.4447  -11.8091   20.0602 C   0  0  0  0  0  0  0  0  0  0  0  0
   16.4742  -10.4203   20.3530 C   0  0  0  0  0  0  0  0  0  0  0  0
   15.9748   -9.4177   19.5433 N   0  0  0  0  0  0  0  0  0  0  0  0
   15.3156   -9.3536   18.3488 C   0  0  0  0  0  0  0  0  0  0  0  0
   14.7945   -8.1946   17.7718 C   0  0  0  0  0  0  0  0  0  0  0  0
   14.1735   -8.3640   16.5280 C   0  0  0  0  0  0  0  0  0  0  0  0
   13.7350   -7.1694   16.1362 N   0  0  0  0  0  0  0  0  0  0  0  0
   14.0620   -6.1948   17.1159 N   0  0  0  0  0  0  0  0  0  0  0  0
   14.6892   -6.7997   18.0699 C   0  0  0  0  0  0  0  0  0  0  0  0
   14.0527   -9.4973   15.8702 N   0  0  0  0  0  0  0  0  0  0  0  0
   14.5851  -10.5476   16.4949 C   0  0  0  0  0  0  0  0  0  0  0  0
   14.4691  -11.7352   15.8817 N   0  0  0  0  0  0  0  0  0  0  0  0
   14.6389  -12.9623   16.6162 C   0  0  0  0  0  0  0  0  0  0  0  0
   13.6352  -14.1186   16.3121 C   0  0  0  0  0  0  0  0  0  0  0  0
   13.4219  -14.1398   14.8908 O   0  0  0  0  0  0  0  0  0  0  0  0
   14.4460  -15.3693   16.7447 C   0  0  0  0  0  0  0  0  0  0  0  0
   15.8750  -14.9764   16.3768 C   0  0  0  0  0  0  0  0  0  0  0  0
   15.9762  -13.6005   16.3026 C   0  0  0  0  0  0  0  0  0  0  0  0
   17.1563  -12.9660   15.9833 C   0  0  0  0  0  0  0  0  0  0  0  0
   18.2795  -13.7457   15.7386 C   0  0  0  0  0  0  0  0  0  0  0  0
   18.1942  -15.1292   15.8164 C   0  0  0  0  0  0  0  0  0  0  0  0
   16.9909  -15.7569   16.1339 C   0  0  0  0  0  0  0  0  0  0  0  0
   15.1981  -10.5130   17.6946 N   0  0  0  0  0  0  0  0  0  0  0  0
   17.0525  -10.1825   21.4770 N   0  0  0  0  0  0  0  0  0  0  0  0
  1  2  1  0  0  0  0
  2  3  1  0  0  0  0
  3  4  1  0  0  0  0
  4  5  1  0  0  0  0
  4  6  1  0  0  0  0
  4  7  1  0  0  0  0
  3  8  2  0  0  0  0
  8  9  1  0  0  0  0
  9 10  1  0  0  0  0
 10 11  1  0  0  0  0
 11 12  1  0  0  0  0
 12 13  2  0  0  0  0
 13 14  1  0  0  0  0
 14 15  1  0  0  0  0
 12 16  1  0  0  0  0
 15 16  2  0  0  0  0
 13 17  1  0  0  0  0
 17 18  2  0  0  0  0
 18 19  1  0  0  0  0
 19 20  1  0  0  0  0
 20 21  1  0  0  0  0
 21 22  1  0  0  0  0
 21 23  1  0  0  0  0
 23 24  1  0  0  0  0
 20 25  1  0  0  0  0
 24 25  1  0  0  0  0
 25 26  2  0  0  0  0
 26 27  1  0  0  0  0
 27 28  2  0  0  0  0
 24 29  2  0  0  0  0
 28 29  1  0  0  0  0
 11 30  2  0  0  0  0
 18 30  1  0  0  0  0
  2 31  1  0  0  0  0
  9 31  2  0  0  0  0
M  END
$$$$
