8IRN
  PyMOL3.1          3D                             0

 27 29  0  0  0  0  0  0  0  0999 V2000
   96.4500  119.9070   92.4890 N   0  0  0  0  0  0  0  0  0  0  0  0
   95.5150  119.7730   91.5660 C   0  0  0  0  0  0  0  0  0  0  0  0
   94.2800  119.4470   91.8830 N   0  0  0  0  0  0  0  0  0  0  0  0
   93.9010  119.2390   93.1680 C   0  0  0  0  0  0  0  0  0  0  0  0
   94.8390  119.3710   94.1420 C   0  0  0  0  0  0  0  0  0  0  0  0
   96.1660  119.7210   93.7670 C   0  0  0  0  0  0  0  0  0  0  0  0
   94.2260  119.1150   95.3150 N   0  0  0  0  0  0  0  0  0  0  0  0
   92.9440  118.8320   95.0870 C   0  0  0  0  0  0  0  0  0  0  0  0
   97.5450  118.7720   95.6390 C   0  0  0  0  0  0  0  0  0  0  0  0
   92.7290  118.9040   93.7740 N   0  0  0  0  0  0  0  0  0  0  0  0
   98.7160  117.9750   95.0730 C   0  0  0  0  0  0  0  0  0  0  0  0
   97.2090  119.8750   94.7620 N   0  0  0  0  0  0  0  0  0  0  0  0
   99.9750  118.1030   95.6300 C   0  0  0  0  0  0  0  0  0  0  0  0
  101.0350  117.3780   95.1120 C   0  0  0  0  0  0  0  0  0  0  0  0
  100.8330  116.5250   94.0410 C   0  0  0  0  0  0  0  0  0  0  0  0
   99.5710  116.3950   93.4860 C   0  0  0  0  0  0  0  0  0  0  0  0
   98.5130  117.1200   94.0040 C   0  0  0  0  0  0  0  0  0  0  0  0
   95.7700  119.9300   90.5250 H   0  0  0  0  0  0  0  0  0  0  0  0
   92.2040  118.5850   95.8370 H   0  0  0  0  0  0  0  0  0  0  0  0
   97.6970  120.7460   94.8440 H   0  0  0  0  0  0  0  0  0  0  0  0
  100.1320  118.7710   96.4670 H   0  0  0  0  0  0  0  0  0  0  0  0
  102.0220  117.4780   95.5460 H   0  0  0  0  0  0  0  0  0  0  0  0
  101.6610  115.9580   93.6370 H   0  0  0  0  0  0  0  0  0  0  0  0
   99.4130  115.7280   92.6470 H   0  0  0  0  0  0  0  0  0  0  0  0
   97.5250  117.0210   93.5690 H   0  0  0  0  0  0  0  0  0  0  0  0
   96.6860  118.1180   95.7450 H   0  0  0  0  0  0  0  0  0  0  0  0
   97.8240  119.1670   96.6100 H   0  0  0  0  0  0  0  0  0  0  0  0
  1  2  1  0  0  0  0
  2  3  2  0  0  0  0
  3  4  1  0  0  0  0
  4  5  2  0  0  0  0
  1  6  2  0  0  0  0
  5  6  1  0  0  0  0
  5  7  1  0  0  0  0
  7  8  2  0  0  0  0
  4 10  1  0  0  0  0
  8 10  1  0  0  0  0
  9 11  1  0  0  0  0
  6 12  1  0  0  0  0
  9 12  1  0  0  0  0
 11 13  1  0  0  0  0
 13 14  2  0  0  0  0
 14 15  1  0  0  0  0
 15 16  2  0  0  0  0
 11 17  2  0  0  0  0
 16 17  1  0  0  0  0
  2 18  1  0  0  0  0
  8 19  1  0  0  0  0
 12 20  1  0  0  0  0
 13 21  1  0  0  0  0
 14 22  1  0  0  0  0
 15 23  1  0  0  0  0
 16 24  1  0  0  0  0
 17 25  1  0  0  0  0
  9 26  1  0  0  0  0
  9 27  1  0  0  0  0
M  END
$$$$
