9EPV
  PyMOL3.1          3D                             0

 39 44  0  0  0  0  0  0  0  0999 V2000
    4.3310  -35.3370   -4.7370 Cl  0  0  0  0  0  0  0  0  0  0  0  0
    4.1290  -36.3640   -3.3520 C   0  0  0  0  0  0  0  0  0  0  0  0
    3.3860  -37.5100   -3.5610 C   0  0  0  0  0  0  0  0  0  0  0  0
    3.3480  -38.5080   -2.5970 C   0  0  0  0  0  0  0  0  0  0  0  0
    2.6360  -39.8030   -2.8740 C   0  0  0  0  0  0  0  0  0  0  0  0
    1.4780  -40.0540   -1.9620 N   0  0  0  0  0  0  0  0  0  0  0  0
    1.2470  -41.5360   -1.8220 C   0  0  0  0  0  0  0  0  0  0  0  0
    0.0400  -41.9060   -0.9310 C   0  0  0  0  0  0  0  0  0  0  0  0
   -0.4130  -42.8830   -2.0300 C   0  0  0  0  0  0  0  0  0  0  0  0
   -0.1100  -44.3670   -1.7610 C   0  0  0  0  0  0  0  0  0  0  0  0
   -1.0830  -44.9940   -0.7620 C   0  0  0  0  0  0  0  0  0  0  0  0
   -2.4720  -44.7760   -1.2160 N   0  0  0  0  0  0  0  0  0  0  0  0
   -3.6850  -45.7440   -0.6660 S   0  0  0  0  0  0  0  0  0  0  0  0
   -4.1310  -45.2190    0.9500 C   0  0  0  0  0  0  0  0  0  0  0  0
   -5.0620  -44.1870    1.1020 C   0  0  0  0  0  0  0  0  0  0  0  0
   -5.3940  -43.7350    2.3730 C   0  0  0  0  0  0  0  0  0  0  0  0
   -4.7790  -44.3380    3.4640 C   0  0  0  0  0  0  0  0  0  0  0  0
   -4.8540  -44.0910    4.8300 N   0  0  0  0  0  0  0  0  0  0  0  0
   -5.6220  -43.0220    5.4560 C   0  0  0  0  0  0  0  0  0  0  0  0
   -4.0150  -44.9510    5.5150 C   0  0  0  0  0  0  0  0  0  0  0  0
   -3.4160  -45.7390    4.5570 N   0  0  0  0  0  0  0  0  0  0  0  0
   -2.5480  -46.8710    4.8580 C   0  0  0  0  0  0  0  0  0  0  0  0
   -3.7980  -44.9710    6.7120 O   0  0  0  0  0  0  0  0  0  0  0  0
   -3.8620  -45.3770    3.2940 C   0  0  0  0  0  0  0  0  0  0  0  0
   -3.5220  -45.8250    2.0390 C   0  0  0  0  0  0  0  0  0  0  0  0
   -4.8180  -45.4690   -1.4910 O   0  0  0  0  0  0  0  0  0  0  0  0
   -3.1550  -47.0730   -0.5740 O   0  0  0  0  0  0  0  0  0  0  0  0
   -2.7850  -43.3410   -1.3400 C   0  0  0  0  0  0  0  0  0  0  0  0
   -1.8930  -42.7380   -2.4100 C   0  0  0  0  0  0  0  0  0  0  0  0
    0.5550  -42.1630   -2.9880 C   0  0  0  0  0  0  0  0  0  0  0  0
    4.0560  -38.3180   -1.4210 C   0  0  0  0  0  0  0  0  0  0  0  0
    4.7970  -37.1680   -1.1970 C   0  0  0  0  0  0  0  0  0  0  0  0
    4.8460  -36.1530   -2.1510 C   0  0  0  0  0  0  0  0  0  0  0  0
    5.5740  -34.8970   -1.7920 C   0  0  0  0  0  0  0  0  0  0  0  0
    6.3820  -34.8430   -0.6520 C   0  0  0  0  0  0  0  0  0  0  0  0
    7.0610  -33.6800   -0.3160 C   0  0  0  0  0  0  0  0  0  0  0  0
    6.9490  -32.5530   -1.1060 C   0  0  0  0  0  0  0  0  0  0  0  0
    6.1570  -32.5860   -2.2350 C   0  0  0  0  0  0  0  0  0  0  0  0
    5.4740  -33.7440   -2.5780 C   0  0  0  0  0  0  0  0  0  0  0  0
  1  2  1  0  0  0  0
  2  3  1  0  0  0  0
  3  4  2  0  0  0  0
  4  5  1  0  0  0  0
  5  6  1  0  0  0  0
  6  7  1  0  0  0  0
  7  8  1  0  0  0  0
  8  9  1  0  0  0  0
  9 10  1  0  0  0  0
 10 11  1  0  0  0  0
 11 12  1  0  0  0  0
 12 13  1  0  0  0  0
 13 14  1  0  0  0  0
 14 15  1  0  0  0  0
 15 16  2  0  0  0  0
 16 17  1  0  0  0  0
 17 18  1  0  0  0  0
 18 19  1  0  0  0  0
 18 20  1  0  0  0  0
 20 21  1  0  0  0  0
 21 22  1  0  0  0  0
 20 23  2  0  0  0  0
 17 24  2  0  0  0  0
 21 24  1  0  0  0  0
 14 25  2  0  0  0  0
 24 25  1  0  0  0  0
 13 26  2  0  0  0  0
 13 27  2  0  0  0  0
 12 28  1  0  0  0  0
  9 29  1  0  0  0  0
 28 29  1  0  0  0  0
  7 30  1  0  0  0  0
  9 30  1  0  0  0  0
  4 31  1  0  0  0  0
 31 32  2  0  0  0  0
  2 33  2  0  0  0  0
 32 33  1  0  0  0  0
 33 34  1  0  0  0  0
 34 35  2  0  0  0  0
 35 36  1  0  0  0  0
 36 37  2  0  0  0  0
 37 38  1  0  0  0  0
 34 39  1  0  0  0  0
 38 39  2  0  0  0  0
M  END
$$$$
