8V8U
  PyMOL3.1          3D                             0

 64 70  0  0  0  0  0  0  0  0999 V2000
   -7.6440   21.0670  -59.6960 C   0  0  0  0  0  0  0  0  0  0  0  0
   -6.7730   19.8630  -59.3060 C   0  0  0  0  0  0  0  0  0  0  0  0
   -7.4380   19.2170  -58.1590 N   0  0  0  0  0  0  0  0  0  0  0  0
   -6.8950   18.1540  -57.4190 C   0  0  0  0  0  0  0  0  0  0  0  0
   -5.7410   17.4940  -57.8670 C   0  0  0  0  0  0  0  0  0  0  0  0
   -5.2100   16.4480  -57.1350 C   0  0  0  0  0  0  0  0  0  0  0  0
   -5.8100   16.0330  -55.9500 C   0  0  0  0  0  0  0  0  0  0  0  0
   -6.9500   16.6730  -55.4980 C   0  0  0  0  0  0  0  0  0  0  0  0
   -7.5150   17.7380  -56.2130 C   0  0  0  0  0  0  0  0  0  0  0  0
   -8.7120   18.3480  -55.6600 C   0  0  0  0  0  0  0  0  0  0  0  0
   -9.6350   17.7010  -55.1880 O   0  0  0  0  0  0  0  0  0  0  0  0
   -8.8380   19.6870  -55.6460 O   0  5  0  0  0  0  0  0  0  0  0  0
   -6.7690   18.8930  -60.4930 C   0  0  0  0  0  0  0  0  0  0  0  0
   -7.8360   18.0610  -60.6680 C   0  0  0  0  0  0  0  0  0  0  0  0
   -7.8870   17.1390  -61.7400 C   0  0  0  0  0  0  0  0  0  0  0  0
   -6.8510   17.0640  -62.6220 C   0  0  0  0  0  0  0  0  0  0  0  0
   -5.7310   17.9000  -62.4730 N   0  0  0  0  0  0  0  0  0  0  0  0
   -4.6710   17.7850  -63.4090 C   0  0  0  0  0  0  0  0  0  0  0  0
   -4.8080   16.9480  -64.3230 O   0  0  0  0  0  0  0  0  0  0  0  0
   -3.5470   18.6380  -63.2550 C   0  0  0  0  0  0  0  0  0  0  0  0
   -3.5460   19.5330  -62.2050 C   0  0  0  0  0  0  0  0  0  0  0  0
   -4.5730   19.6050  -61.3120 N   0  0  0  0  0  0  0  0  0  0  0  0
   -5.6480   18.8370  -61.4110 C   0  0  0  0  0  0  0  0  0  0  0  0
   -2.5050   20.4300  -61.9520 N   0  0  0  0  0  0  0  0  0  0  0  0
   -1.0740   20.0210  -61.9750 C   0  0  0  0  0  0  0  0  0  0  0  0
   -0.4140   20.0360  -60.5910 C   0  0  0  0  0  0  0  0  0  0  0  0
   -0.5780   21.3720  -59.8660 C   0  0  0  0  0  0  0  0  0  0  0  0
   -2.0780   21.6530  -59.7810 C   0  0  0  0  0  0  0  0  0  0  0  0
   -2.7410   21.6750  -61.1640 C   0  0  0  0  0  0  0  0  0  0  0  0
   -2.5230   18.4650  -64.2460 C   0  0  0  0  0  0  0  0  0  0  0  0
   -1.7010   18.3370  -65.0290 N   0  0  0  0  0  0  0  0  0  0  0  0
   -9.1110   16.2580  -61.8690 C   0  0  0  0  0  0  0  0  0  0  0  0
    6.0450  -19.1210  -20.9500 C   0  0  0  0  0  0  0  0  0  0  0  0
    6.7650  -17.7670  -20.9770 C   0  0  0  0  0  0  0  0  0  0  0  0
    6.6640  -17.2680  -22.3640 N   0  0  0  0  0  0  0  0  0  0  0  0
    7.5030  -16.2980  -22.9340 C   0  0  0  0  0  0  0  0  0  0  0  0
    8.0330  -15.2730  -22.1370 C   0  0  0  0  0  0  0  0  0  0  0  0
    8.8610  -14.3170  -22.6900 C   0  0  0  0  0  0  0  0  0  0  0  0
    9.1790  -14.3500  -24.0430 C   0  0  0  0  0  0  0  0  0  0  0  0
    8.6630  -15.3550  -24.8410 C   0  0  0  0  0  0  0  0  0  0  0  0
    7.8190  -16.3440  -24.3180 C   0  0  0  0  0  0  0  0  0  0  0  0
    7.3340  -17.3610  -25.2410 C   0  0  0  0  0  0  0  0  0  0  0  0
    7.7240  -17.4620  -26.3950 O   0  0  0  0  0  0  0  0  0  0  0  0
    6.4120  -18.2540  -24.8420 O   0  5  0  0  0  0  0  0  0  0  0  0
    6.0070  -16.8140  -20.0420 C   0  0  0  0  0  0  0  0  0  0  0  0
    4.9380  -16.1240  -20.5320 C   0  0  0  0  0  0  0  0  0  0  0  0
    4.2040  -15.2270  -19.7210 C   0  0  0  0  0  0  0  0  0  0  0  0
    4.5580  -15.0340  -18.4210 C   0  0  0  0  0  0  0  0  0  0  0  0
    5.6550  -15.7250  -17.8820 N   0  0  0  0  0  0  0  0  0  0  0  0
    5.9960  -15.4960  -16.5250 C   0  0  0  0  0  0  0  0  0  0  0  0
    5.2850  -14.6880  -15.8960 O   0  0  0  0  0  0  0  0  0  0  0  0
    7.1020  -16.1930  -15.9740 C   0  0  0  0  0  0  0  0  0  0  0  0
    7.7960  -17.0690  -16.7990 C   0  0  0  0  0  0  0  0  0  0  0  0
    7.4370  -17.2550  -18.1010 N   0  0  0  0  0  0  0  0  0  0  0  0
    6.4130  -16.6310  -18.6620 C   0  0  0  0  0  0  0  0  0  0  0  0
    8.9150  -17.8510  -16.4810 N   0  0  0  0  0  0  0  0  0  0  0  0
    9.5870  -17.9110  -15.1500 C   0  0  0  0  0  0  0  0  0  0  0  0
   11.1080  -17.7270  -15.2470 C   0  0  0  0  0  0  0  0  0  0  0  0
   11.5320  -17.4410  -16.6880 C   0  0  0  0  0  0  0  0  0  0  0  0
   11.0610  -18.6340  -17.5230 C   0  0  0  0  0  0  0  0  0  0  0  0
    9.5330  -18.7380  -17.5080 C   0  0  0  0  0  0  0  0  0  0  0  0
    7.3230  -15.8600  -14.5940 C   0  0  0  0  0  0  0  0  0  0  0  0
    7.5020  -15.6010  -13.4980 N   0  0  0  0  0  0  0  0  0  0  0  0
    3.0300  -14.5050  -20.3410 C   0  0  0  0  0  0  0  0  0  0  0  0
  1  2  1  0  0  0  0
  2  3  1  0  0  0  0
  3  4  1  0  0  0  0
  4  5  2  0  0  0  0
  5  6  1  0  0  0  0
  6  7  2  0  0  0  0
  7  8  1  0  0  0  0
  4  9  1  0  0  0  0
  8  9  2  0  0  0  0
  9 10  1  0  0  0  0
 10 11  1  0  0  0  0
 10 12  2  0  0  0  0
  2 13  1  0  0  0  0
 13 14  2  0  0  0  0
 14 15  1  0  0  0  0
 15 16  2  0  0  0  0
 16 17  1  0  0  0  0
 17 18  1  0  0  0  0
 18 19  2  0  0  0  0
 18 20  1  0  0  0  0
 20 21  2  0  0  0  0
 21 22  1  0  0  0  0
 13 23  1  0  0  0  0
 17 23  1  0  0  0  0
 22 23  2  0  0  0  0
 21 24  1  0  0  0  0
 24 25  1  0  0  0  0
 25 26  1  0  0  0  0
 26 27  1  0  0  0  0
 27 28  1  0  0  0  0
 24 29  1  0  0  0  0
 28 29  1  0  0  0  0
 20 30  1  0  0  0  0
 30 31  3  0  0  0  0
 15 32  1  0  0  0  0
 33 34  1  0  0  0  0
 34 35  1  0  0  0  0
 35 36  1  0  0  0  0
 36 37  2  0  0  0  0
 37 38  1  0  0  0  0
 38 39  2  0  0  0  0
 39 40  1  0  0  0  0
 36 41  1  0  0  0  0
 40 41  2  0  0  0  0
 41 42  1  0  0  0  0
 42 43  1  0  0  0  0
 42 44  2  0  0  0  0
 34 45  1  0  0  0  0
 45 46  2  0  0  0  0
 46 47  1  0  0  0  0
 47 48  2  0  0  0  0
 48 49  1  0  0  0  0
 49 50  1  0  0  0  0
 50 51  2  0  0  0  0
 50 52  1  0  0  0  0
 52 53  2  0  0  0  0
 53 54  1  0  0  0  0
 45 55  1  0  0  0  0
 49 55  1  0  0  0  0
 54 55  2  0  0  0  0
 53 56  1  0  0  0  0
 56 57  1  0  0  0  0
 57 58  1  0  0  0  0
 58 59  1  0  0  0  0
 59 60  1  0  0  0  0
 56 61  1  0  0  0  0
 60 61  1  0  0  0  0
 52 62  1  0  0  0  0
 62 63  3  0  0  0  0
 47 64  1  0  0  0  0
M  END
$$$$
