7WC8
  PyMOL3.1          3D                             0

 29 33  0  0  0  0  0  0  0  0999 V2000
  -25.9190  -14.0430  146.0690 C   0  0  0  0  0  0  0  0  0  0  0  0
  -26.4040  -13.4230  143.2440 N   0  0  0  0  0  0  0  0  0  0  0  0
  -27.8150   -9.7790  140.2250 O   0  0  0  0  0  0  0  0  0  0  0  0
  -25.0810  -14.6000  144.9520 C   0  0  0  0  0  0  0  0  0  0  0  0
  -26.9070  -15.0130  146.5770 N   0  0  0  0  0  0  0  0  0  0  0  0
  -25.8670  -14.7220  143.6600 C   0  0  0  0  0  0  0  0  0  0  0  0
  -28.8620  -16.0620  148.3250 N   0  0  0  0  0  0  0  0  0  0  0  0
  -26.9780  -13.5170  141.8910 C   0  0  0  0  0  0  0  0  0  0  0  0
  -27.3490  -12.1580  141.3720 C   0  0  0  0  0  0  0  0  0  0  0  0
  -28.0500  -12.1460  140.0130 C   0  0  0  0  0  0  0  0  0  0  0  0
  -28.2370  -10.7160  139.5490 C   0  0  0  0  0  0  0  0  0  0  0  0
  -28.9140  -10.4410  138.2500 C   0  0  0  0  0  0  0  0  0  0  0  0
  -29.3570  -11.4970  137.4710 C   0  0  0  0  0  0  0  0  0  0  0  0
  -30.0090  -11.2730  136.2750 C   0  0  0  0  0  0  0  0  0  0  0  0
  -30.1610   -9.9850  135.8450 C   0  0  0  0  0  0  0  0  0  0  0  0
  -29.7150   -8.9140  136.5480 C   0  0  0  0  0  0  0  0  0  0  0  0
  -29.0950   -9.1500  137.7680 C   0  0  0  0  0  0  0  0  0  0  0  0
  -27.3510  -12.8810  144.2240 C   0  0  0  0  0  0  0  0  0  0  0  0
  -26.8080  -12.8110  145.6520 C   0  0  0  0  0  0  0  0  0  0  0  0
  -27.9750  -12.9370  146.6080 C   0  0  0  0  0  0  0  0  0  0  0  0
  -29.0170  -12.0850  146.9460 C   0  0  0  0  0  0  0  0  0  0  0  0
  -30.0540  -12.5720  147.7820 C   0  0  0  0  0  0  0  0  0  0  0  0
  -30.0430  -13.8750  148.2690 C   0  0  0  0  0  0  0  0  0  0  0  0
  -28.9870  -14.7360  147.9260 C   0  0  0  0  0  0  0  0  0  0  0  0
  -27.9700  -14.2380  147.1020 C   0  0  0  0  0  0  0  0  0  0  0  0
  -26.5470  -16.0890  147.5080 C   0  0  0  0  0  0  0  0  0  0  0  0
  -27.7870  -16.9180  147.7920 C   0  0  0  0  0  0  0  0  0  0  0  0
  -29.7830  -16.6780  149.2700 C   0  0  0  0  0  0  0  0  0  0  0  0
  -30.7970   -9.7580  134.6620 F   0  0  0  0  0  0  0  0  0  0  0  0
  1  4  1  0  0  0  0
  1  5  1  0  0  0  0
  2  6  1  0  0  0  0
  4  6  1  0  0  0  0
  2  8  1  0  0  0  0
  8  9  1  0  0  0  0
  9 10  1  0  0  0  0
  3 11  2  0  0  0  0
 10 11  1  0  0  0  0
 11 12  1  0  0  0  0
 12 13  2  0  0  0  0
 13 14  1  0  0  0  0
 14 15  2  0  0  0  0
 15 16  1  0  0  0  0
 12 17  1  0  0  0  0
 16 17  2  0  0  0  0
  2 18  1  0  0  0  0
  1 19  1  0  0  0  0
 18 19  1  0  0  0  0
 19 20  1  0  0  0  0
 20 21  1  0  0  0  0
 21 22  2  0  0  0  0
 22 23  1  0  0  0  0
  7 24  1  0  0  0  0
 23 24  2  0  0  0  0
  5 25  1  0  0  0  0
 20 25  2  0  0  0  0
 24 25  1  0  0  0  0
  5 26  1  0  0  0  0
  7 27  1  0  0  0  0
 26 27  1  0  0  0  0
  7 28  1  0  0  0  0
 15 29  1  0  0  0  0
M  END
$$$$
