7UMU
  PyMOL3.1          3D                             0

132144  0  0  0  0  0  0  0  0999 V2000
  129.8898  -12.7316   98.2125 C   0  0  0  0  0  0  0  0  0  0  0  0
  129.6342  -12.5056   96.7035 C   0  0  0  0  0  0  0  0  0  0  0  0
  130.9540  -12.1326   95.9879 C   0  0  0  0  0  0  0  0  0  0  0  0
  129.0701  -13.7945   96.0972 C   0  0  0  0  0  0  0  0  0  0  0  0
  128.6503  -11.3780   96.4766 C   0  0  0  0  0  0  0  0  0  0  0  0
  129.0921  -10.2028   96.5649 O   0  0  0  0  0  0  0  0  0  0  0  0
  127.1748  -11.5566   96.1575 C   0  0  0  0  0  0  0  0  0  0  0  0
  126.1311   -9.9812   96.2726 S   0  0  0  0  0  0  0  0  0  0  0  0
  125.9775   -9.0774   94.6783 C   0  0  0  0  0  0  0  0  0  0  0  0
  125.1008   -8.0455   94.5648 N   0  0  0  0  0  0  0  0  0  0  0  0
  124.9850   -7.3808   93.3624 C   0  0  0  0  0  0  0  0  0  0  0  0
  125.7899   -7.7810   92.2360 C   0  0  0  0  0  0  0  0  0  0  0  0
  125.6798   -7.0610   90.8913 C   0  0  0  0  0  0  0  0  0  0  0  0
  126.6381   -7.6102   89.7353 C   0  0  0  0  0  0  0  0  0  0  0  0
  127.5694   -8.8027   90.0671 C   0  0  0  0  0  0  0  0  0  0  0  0
  128.4467   -9.3468   89.0777 C   0  0  0  0  0  0  0  0  0  0  0  0
  129.3043  -10.4500   89.4042 C   0  0  0  0  0  0  0  0  0  0  0  0
  129.2857  -11.0023   90.6953 C   0  0  0  0  0  0  0  0  0  0  0  0
  128.4144  -10.4609   91.6801 C   0  0  0  0  0  0  0  0  0  0  0  0
  127.5532   -9.3558   91.3524 C   0  0  0  0  0  0  0  0  0  0  0  0
  126.6782   -8.8531   92.4197 C   0  0  0  0  0  0  0  0  0  0  0  0
  126.7669   -9.4983   93.6398 N   0  0  0  0  0  0  0  0  0  0  0  0
  150.4356  -33.4094  127.2960 C   0  0  0  0  0  0  0  0  0  0  0  0
  151.5973  -33.4186  128.3262 C   0  0  0  0  0  0  0  0  0  0  0  0
  152.9526  -33.4457  127.5720 C   0  0  0  0  0  0  0  0  0  0  0  0
  151.5136  -32.1324  129.1868 C   0  0  0  0  0  0  0  0  0  0  0  0
  151.5232  -34.6624  129.2460 C   0  0  0  0  0  0  0  0  0  0  0  0
  151.7874  -35.7791  128.7262 O   0  0  0  0  0  0  0  0  0  0  0  0
  151.1414  -34.6406  130.7357 C   0  0  0  0  0  0  0  0  0  0  0  0
  150.9515  -36.3376  131.5991 S   0  0  0  0  0  0  0  0  0  0  0  0
  152.5095  -36.9235  132.3484 C   0  0  0  0  0  0  0  0  0  0  0  0
  152.4971  -37.9046  133.2871 N   0  0  0  0  0  0  0  0  0  0  0  0
  153.6875  -38.3273  133.8450 C   0  0  0  0  0  0  0  0  0  0  0  0
  154.9267  -37.7192  133.4290 C   0  0  0  0  0  0  0  0  0  0  0  0
  156.2747  -38.1417  134.0173 C   0  0  0  0  0  0  0  0  0  0  0  0
  157.5234  -37.7509  133.1098 C   0  0  0  0  0  0  0  0  0  0  0  0
  157.3542  -36.4823  132.2394 C   0  0  0  0  0  0  0  0  0  0  0  0
  158.4827  -35.7826  131.7283 C   0  0  0  0  0  0  0  0  0  0  0  0
  158.2913  -34.6095  130.9322 C   0  0  0  0  0  0  0  0  0  0  0  0
  157.0014  -34.1460  130.6389 C   0  0  0  0  0  0  0  0  0  0  0  0
  155.8748  -34.8475  131.1477 C   0  0  0  0  0  0  0  0  0  0  0  0
  156.0667  -36.0206  131.9554 C   0  0  0  0  0  0  0  0  0  0  0  0
  154.8654  -36.7069  132.4543 C   0  0  0  0  0  0  0  0  0  0  0  0
  153.6571  -36.3133  131.9220 N   0  0  0  0  0  0  0  0  0  0  0  0
  127.7958  -62.0856   76.4755 C   0  0  0  0  0  0  0  0  0  0  0  0
  127.6777  -63.6046   76.7082 C   0  0  0  0  0  0  0  0  0  0  0  0
  129.0668  -64.2627   76.5577 C   0  0  0  0  0  0  0  0  0  0  0  0
  127.1267  -63.8532   78.1319 C   0  0  0  0  0  0  0  0  0  0  0  0
  126.7482  -64.2523   75.6890 C   0  0  0  0  0  0  0  0  0  0  0  0
  127.2780  -64.7106   74.6436 O   0  0  0  0  0  0  0  0  0  0  0  0
  125.2320  -64.3862   75.8445 C   0  0  0  0  0  0  0  0  0  0  0  0
  124.2876  -65.0272   74.3270 S   0  0  0  0  0  0  0  0  0  0  0  0
  123.9708  -66.8534   74.3610 C   0  0  0  0  0  0  0  0  0  0  0  0
  123.1415  -67.4180   73.4414 N   0  0  0  0  0  0  0  0  0  0  0  0
  122.9090  -68.7762   73.4764 C   0  0  0  0  0  0  0  0  0  0  0  0
  123.5412  -69.5893   74.4853 C   0  0  0  0  0  0  0  0  0  0  0  0
  123.3003  -71.1014   74.5523 C   0  0  0  0  0  0  0  0  0  0  0  0
  124.1989  -71.8912   75.6151 C   0  0  0  0  0  0  0  0  0  0  0  0
  125.0294  -71.0588   76.6287 C   0  0  0  0  0  0  0  0  0  0  0  0
  125.7352  -71.6942   77.7011 C   0  0  0  0  0  0  0  0  0  0  0  0
  126.5003  -70.9126   78.6281 C   0  0  0  0  0  0  0  0  0  0  0  0
  126.5594  -69.5194   78.4863 C   0  0  0  0  0  0  0  0  0  0  0  0
  125.8578  -68.8882   77.4214 C   0  0  0  0  0  0  0  0  0  0  0  0
  125.0898  -69.6701   76.4900 C   0  0  0  0  0  0  0  0  0  0  0  0
  124.3873  -68.9461   75.4100 C   0  0  0  0  0  0  0  0  0  0  0  0
  124.5956  -67.5811   75.3428 N   0  0  0  0  0  0  0  0  0  0  0  0
  158.9990  -18.6347   95.2473 C   0  0  0  0  0  0  0  0  0  0  0  0
  159.5715  -19.5130   94.1050 C   0  0  0  0  0  0  0  0  0  0  0  0
  159.3766  -18.7791   92.7704 C   0  0  0  0  0  0  0  0  0  0  0  0
  161.0832  -19.7553   94.3398 C   0  0  0  0  0  0  0  0  0  0  0  0
  158.8592  -20.8637   94.0230 C   0  0  0  0  0  0  0  0  0  0  0  0
  157.7928  -20.9108   93.3574 O   0  0  0  0  0  0  0  0  0  0  0  0
  159.3463  -22.1590   94.6921 C   0  0  0  0  0  0  0  0  0  0  0  0
  158.1574  -23.6517   94.6342 S   0  0  0  0  0  0  0  0  0  0  0  0
  158.2655  -24.6494   93.0821 C   0  0  0  0  0  0  0  0  0  0  0  0
  157.5775  -25.8194   92.9800 N   0  0  0  0  0  0  0  0  0  0  0  0
  157.6618  -26.5646   91.8206 C   0  0  0  0  0  0  0  0  0  0  0  0
  158.4797  -26.1052   90.7251 C   0  0  0  0  0  0  0  0  0  0  0  0
  158.5957  -26.9148   89.4277 C   0  0  0  0  0  0  0  0  0  0  0  0
  159.5328  -26.2720   88.3035 C   0  0  0  0  0  0  0  0  0  0  0  0
  160.2312  -24.9206   88.6184 C   0  0  0  0  0  0  0  0  0  0  0  0
  161.0836  -24.2933   87.6553 C   0  0  0  0  0  0  0  0  0  0  0  0
  161.7192  -23.0453   87.9598 C   0  0  0  0  0  0  0  0  0  0  0  0
  161.5073  -22.4310   89.2031 C   0  0  0  0  0  0  0  0  0  0  0  0
  160.6641  -23.0545   90.1623 C   0  0  0  0  0  0  0  0  0  0  0  0
  160.0296  -24.3087   89.8580 C   0  0  0  0  0  0  0  0  0  0  0  0
  159.1688  -24.8882   90.8944 C   0  0  0  0  0  0  0  0  0  0  0  0
  159.0582  -24.1665   92.0723 N   0  0  0  0  0  0  0  0  0  0  0  0
  150.5567  -28.2597   83.0267 C   0  0  0  0  0  0  0  0  0  0  0  0
  152.0145  -27.7309   83.1063 C   0  0  0  0  0  0  0  0  0  0  0  0
  152.8152  -28.6143   84.0826 C   0  0  0  0  0  0  0  0  0  0  0  0
  152.6565  -27.8120   81.7098 C   0  0  0  0  0  0  0  0  0  0  0  0
  152.0747  -26.2700   83.6009 C   0  0  0  0  0  0  0  0  0  0  0  0
  152.2187  -26.0840   84.8369 O   0  0  0  0  0  0  0  0  0  0  0  0
  151.9729  -25.0301   82.7037 C   0  0  0  0  0  0  0  0  0  0  0  0
  151.8105  -23.3468   83.5995 S   0  0  0  0  0  0  0  0  0  0  0  0
  153.4224  -22.5920   84.1196 C   0  0  0  0  0  0  0  0  0  0  0  0
  153.4555  -21.3282   84.6241 N   0  0  0  0  0  0  0  0  0  0  0  0
  154.6614  -20.7723   85.0083 C   0  0  0  0  0  0  0  0  0  0  0  0
  155.8784  -21.5291   84.8677 C   0  0  0  0  0  0  0  0  0  0  0  0
  157.2369  -20.9434   85.2760 C   0  0  0  0  0  0  0  0  0  0  0  0
  158.4598  -21.9685   85.2133 C   0  0  0  0  0  0  0  0  0  0  0  0
  158.2097  -23.3496   84.5365 C   0  0  0  0  0  0  0  0  0  0  0  0
  159.2822  -24.2671   84.3090 C   0  0  0  0  0  0  0  0  0  0  0  0
  159.0246  -25.5313   83.6817 C   0  0  0  0  0  0  0  0  0  0  0  0
  157.7212  -25.8831   83.2914 C   0  0  0  0  0  0  0  0  0  0  0  0
  156.6567  -24.9714   83.5180 C   0  0  0  0  0  0  0  0  0  0  0  0
  156.9174  -23.7019   84.1403 C   0  0  0  0  0  0  0  0  0  0  0  0
  155.7718  -22.8263   84.3372 C   0  0  0  0  0  0  0  0  0  0  0  0
  154.5492  -23.3515   83.9659 N   0  0  0  0  0  0  0  0  0  0  0  0
  159.6203   17.6093  116.3500 C   0  0  0  0  0  0  0  0  0  0  0  0
  159.1412   19.0589  116.6239 C   0  0  0  0  0  0  0  0  0  0  0  0
  159.4846   19.9554  115.4135 C   0  0  0  0  0  0  0  0  0  0  0  0
  157.6193   19.0507  116.8426 C   0  0  0  0  0  0  0  0  0  0  0  0
  159.8152   19.6395  117.8689 C   0  0  0  0  0  0  0  0  0  0  0  0
  161.0542   19.8475  117.7988 O   0  0  0  0  0  0  0  0  0  0  0  0
  159.0956   19.9727  119.1932 C   0  0  0  0  0  0  0  0  0  0  0  0
  160.1990   20.3301  120.7243 S   0  0  0  0  0  0  0  0  0  0  0  0
  160.2826   22.1081  121.1678 C   0  0  0  0  0  0  0  0  0  0  0  0
  160.8523   22.4929  122.3413 N   0  0  0  0  0  0  0  0  0  0  0  0
  160.9045   23.8330  122.6685 C   0  0  0  0  0  0  0  0  0  0  0  0
  160.3532   24.8148  121.7654 C   0  0  0  0  0  0  0  0  0  0  0  0
  160.3914   26.3110  122.0935 C   0  0  0  0  0  0  0  0  0  0  0  0
  159.9751   27.2751  120.8867 C   0  0  0  0  0  0  0  0  0  0  0  0
  159.2457   26.6362  119.6741 C   0  0  0  0  0  0  0  0  0  0  0  0
  158.6420   27.4490  118.6622 C   0  0  0  0  0  0  0  0  0  0  0  0
  157.9752   26.8372  117.5501 C   0  0  0  0  0  0  0  0  0  0  0  0
  157.9127   25.4392  117.4487 C   0  0  0  0  0  0  0  0  0  0  0  0
  158.5161   24.6318  118.4515 C   0  0  0  0  0  0  0  0  0  0  0  0
  159.1826   25.2451  119.5677 C   0  0  0  0  0  0  0  0  0  0  0  0
  159.7768   24.3491  120.5665 C   0  0  0  0  0  0  0  0  0  0  0  0
  159.7433   22.9979  120.2755 N   0  0  0  0  0  0  0  0  0  0  0  0
  1  2  1  0  0  0  0
  2  3  1  0  0  0  0
  2  4  1  0  0  0  0
  2  5  1  0  0  0  0
  5  6  2  0  0  0  0
  5  7  1  0  0  0  0
  7  8  1  0  0  0  0
  8  9  1  0  0  0  0
  9 10  1  0  0  0  0
 10 11  2  0  0  0  0
 11 12  1  0  0  0  0
 12 13  2  0  0  0  0
 13 14  1  0  0  0  0
 14 15  2  0  0  0  0
 15 16  1  0  0  0  0
 16 17  2  0  0  0  0
 17 18  1  0  0  0  0
 18 19  2  0  0  0  0
 15 20  1  0  0  0  0
 19 20  1  0  0  0  0
 12 21  1  0  0  0  0
 20 21  2  0  0  0  0
  9 22  2  0  0  0  0
 21 22  1  0  0  0  0
 23 24  1  0  0  0  0
 24 25  1  0  0  0  0
 24 26  1  0  0  0  0
 24 27  1  0  0  0  0
 27 28  2  0  0  0  0
 27 29  1  0  0  0  0
 29 30  1  0  0  0  0
 30 31  1  0  0  0  0
 31 32  1  0  0  0  0
 32 33  2  0  0  0  0
 33 34  1  0  0  0  0
 34 35  2  0  0  0  0
 35 36  1  0  0  0  0
 36 37  2  0  0  0  0
 37 38  1  0  0  0  0
 38 39  2  0  0  0  0
 39 40  1  0  0  0  0
 40 41  2  0  0  0  0
 37 42  1  0  0  0  0
 41 42  1  0  0  0  0
 34 43  1  0  0  0  0
 42 43  2  0  0  0  0
 31 44  2  0  0  0  0
 43 44  1  0  0  0  0
 45 46  1  0  0  0  0
 46 47  1  0  0  0  0
 46 48  1  0  0  0  0
 46 49  1  0  0  0  0
 49 50  2  0  0  0  0
 49 51  1  0  0  0  0
 51 52  1  0  0  0  0
 52 53  1  0  0  0  0
 53 54  1  0  0  0  0
 54 55  2  0  0  0  0
 55 56  1  0  0  0  0
 56 57  2  0  0  0  0
 57 58  1  0  0  0  0
 58 59  2  0  0  0  0
 59 60  1  0  0  0  0
 60 61  2  0  0  0  0
 61 62  1  0  0  0  0
 62 63  2  0  0  0  0
 59 64  1  0  0  0  0
 63 64  1  0  0  0  0
 56 65  1  0  0  0  0
 64 65  2  0  0  0  0
 53 66  2  0  0  0  0
 65 66  1  0  0  0  0
 67 68  1  0  0  0  0
 68 69  1  0  0  0  0
 68 70  1  0  0  0  0
 68 71  1  0  0  0  0
 71 72  2  0  0  0  0
 71 73  1  0  0  0  0
 73 74  1  0  0  0  0
 74 75  1  0  0  0  0
 75 76  1  0  0  0  0
 76 77  2  0  0  0  0
 77 78  1  0  0  0  0
 78 79  2  0  0  0  0
 79 80  1  0  0  0  0
 80 81  2  0  0  0  0
 81 82  1  0  0  0  0
 82 83  2  0  0  0  0
 83 84  1  0  0  0  0
 84 85  2  0  0  0  0
 81 86  1  0  0  0  0
 85 86  1  0  0  0  0
 78 87  1  0  0  0  0
 86 87  2  0  0  0  0
 75 88  2  0  0  0  0
 87 88  1  0  0  0  0
 89 90  1  0  0  0  0
 90 91  1  0  0  0  0
 90 92  1  0  0  0  0
 90 93  1  0  0  0  0
 93 94  2  0  0  0  0
 93 95  1  0  0  0  0
 95 96  1  0  0  0  0
 96 97  1  0  0  0  0
 97 98  1  0  0  0  0
 98 99  2  0  0  0  0
 99100  1  0  0  0  0
100101  2  0  0  0  0
101102  1  0  0  0  0
102103  2  0  0  0  0
103104  1  0  0  0  0
104105  2  0  0  0  0
105106  1  0  0  0  0
106107  2  0  0  0  0
103108  1  0  0  0  0
107108  1  0  0  0  0
100109  1  0  0  0  0
108109  2  0  0  0  0
 97110  2  0  0  0  0
109110  1  0  0  0  0
111112  1  0  0  0  0
112113  1  0  0  0  0
112114  1  0  0  0  0
112115  1  0  0  0  0
115116  2  0  0  0  0
115117  1  0  0  0  0
117118  1  0  0  0  0
118119  1  0  0  0  0
119120  1  0  0  0  0
120121  2  0  0  0  0
121122  1  0  0  0  0
122123  2  0  0  0  0
123124  1  0  0  0  0
124125  2  0  0  0  0
125126  1  0  0  0  0
126127  2  0  0  0  0
127128  1  0  0  0  0
128129  2  0  0  0  0
125130  1  0  0  0  0
129130  1  0  0  0  0
122131  1  0  0  0  0
130131  2  0  0  0  0
119132  2  0  0  0  0
131132  1  0  0  0  0
M  END
$$$$
