9AVA
  PyMOL3.1          3D                             0

 37 40  0  0  0  0  0  0  0  0999 V2000
    0.0260  -45.1030  -10.7640 N   0  0  0  0  0  0  0  0  0  0  0  0
    1.4800  -44.9580  -10.5780 C   0  0  0  0  0  0  0  0  0  0  0  0
    2.0770  -42.9220   -9.4360 O   0  0  0  0  0  0  0  0  0  0  0  0
   -3.7770  -47.8810   -4.7410 Cl  0  0  0  0  0  0  0  0  0  0  0  0
   -5.2900  -47.8000   -7.5690 Cl  0  0  0  0  0  0  0  0  0  0  0  0
    2.0030  -44.3420  -11.8880 C   0  0  0  0  0  0  0  0  0  0  0  0
    1.4470  -44.6590   -8.1300 N   0  0  0  0  0  0  0  0  0  0  0  0
    0.4190  -44.4430   -4.9260 O   0  0  0  0  0  0  0  0  0  0  0  0
    0.7330  -43.9880  -12.6810 C   0  0  0  0  0  0  0  0  0  0  0  0
   -0.6420  -43.2080   -6.4960 N   0  0  0  0  0  0  0  0  0  0  0  0
   -0.2370  -45.0680  -12.2210 C   0  0  0  0  0  0  0  0  0  0  0  0
    0.9600  -43.8910  -14.1300 N   0  0  0  0  0  0  0  0  0  0  0  0
   -0.6130  -46.2370  -10.0600 C   0  0  0  0  0  0  0  0  0  0  0  0
   -2.1010  -46.3820  -10.3910 C   0  0  0  0  0  0  0  0  0  0  0  0
   -2.7090  -47.7840  -10.2930 C   0  0  0  0  0  0  0  0  0  0  0  0
   -1.8500  -48.8950  -10.8570 C   0  0  0  0  0  0  0  0  0  0  0  0
   -1.4580  -48.8920  -12.1970 C   0  0  0  0  0  0  0  0  0  0  0  0
   -0.6890  -49.9230  -12.7120 C   0  0  0  0  0  0  0  0  0  0  0  0
   -0.2980  -50.9740  -11.9000 C   0  0  0  0  0  0  0  0  0  0  0  0
   -0.6950  -50.9970  -10.5720 C   0  0  0  0  0  0  0  0  0  0  0  0
   -1.4570  -49.9620  -10.0510 C   0  0  0  0  0  0  0  0  0  0  0  0
   -0.4340  -46.2720   -8.5060 C   0  0  0  0  0  0  0  0  0  0  0  0
    0.9870  -46.0510   -7.9870 C   0  0  0  0  0  0  0  0  0  0  0  0
    1.7080  -44.0870   -9.3330 C   0  0  0  0  0  0  0  0  0  0  0  0
    1.6490  -43.8750   -6.9170 C   0  0  0  0  0  0  0  0  0  0  0  0
    2.9280  -44.3390   -6.2090 C   0  0  0  0  0  0  0  0  0  0  0  0
    4.2300  -43.9440   -6.9050 C   0  0  0  0  0  0  0  0  0  0  0  0
    5.3840  -44.7920   -6.4070 C   0  0  0  0  0  0  0  0  0  0  0  0
    4.5360  -42.4500   -6.7400 C   0  0  0  0  0  0  0  0  0  0  0  0
    0.4140  -43.8760   -6.0180 C   0  0  0  0  0  0  0  0  0  0  0  0
   -1.9120  -43.1410   -5.7880 C   0  0  0  0  0  0  0  0  0  0  0  0
   -2.8220  -44.2810   -6.1720 C   0  0  0  0  0  0  0  0  0  0  0  0
   -3.6230  -44.1950   -7.3070 C   0  0  0  0  0  0  0  0  0  0  0  0
   -4.3980  -45.2660   -7.7140 C   0  0  0  0  0  0  0  0  0  0  0  0
   -4.3930  -46.4390   -6.9780 C   0  0  0  0  0  0  0  0  0  0  0  0
   -3.6360  -46.5210   -5.8100 C   0  0  0  0  0  0  0  0  0  0  0  0
   -2.8400  -45.4560   -5.4250 C   0  0  0  0  0  0  0  0  0  0  0  0
  1  2  1  0  0  0  0
  2  6  1  0  0  0  0
  6  9  1  0  0  0  0
  1 11  1  0  0  0  0
  9 11  1  0  0  0  0
  9 12  1  0  0  0  0
  1 13  1  0  0  0  0
 13 14  1  0  0  0  0
 14 15  1  0  0  0  0
 15 16  1  0  0  0  0
 16 17  2  0  0  0  0
 17 18  1  0  0  0  0
 18 19  2  0  0  0  0
 19 20  1  0  0  0  0
 16 21  1  0  0  0  0
 20 21  2  0  0  0  0
 13 22  1  0  0  0  0
  7 23  1  0  0  0  0
 22 23  1  0  0  0  0
  2 24  1  0  0  0  0
  3 24  2  0  0  0  0
  7 24  1  0  0  0  0
  7 25  1  0  0  0  0
 25 26  1  0  0  0  0
 26 27  1  0  0  0  0
 27 28  1  0  0  0  0
 27 29  1  0  0  0  0
  8 30  2  0  0  0  0
 10 30  1  0  0  0  0
 25 30  1  0  0  0  0
 10 31  1  0  0  0  0
 31 32  1  0  0  0  0
 32 33  2  0  0  0  0
 33 34  1  0  0  0  0
  5 35  1  0  0  0  0
 34 35  2  0  0  0  0
  4 36  1  0  0  0  0
 35 36  1  0  0  0  0
 32 37  1  0  0  0  0
 36 37  2  0  0  0  0
M  END
$$$$
