9B6G
  PyMOL3.1          3D                             0

 54 56  0  0  0  0  0  0  0  0999 V2000
  170.7980  208.4670  205.3400 O   0  0  0  0  0  0  0  0  0  0  0  0
  171.2170  209.0910  206.2550 C   0  0  0  0  0  0  0  0  0  0  0  0
  170.5160  210.3000  206.6680 N   0  0  0  0  0  0  0  0  0  0  0  0
  170.9630  211.1220  207.7790 C   0  0  0  0  0  0  0  0  0  0  0  0
  171.8940  212.2370  207.3060 C   0  0  0  0  0  0  0  0  0  0  0  0
  171.9220  213.5610  207.8460 C   0  0  0  0  0  0  0  0  0  0  0  0
  172.9790  214.3930  207.1270 C   0  0  0  0  0  0  0  0  0  0  0  0
  173.6260  213.5940  206.1290 C   0  0  0  0  0  0  0  0  0  0  0  0
  172.9970  212.1040  206.1310 S   0  0  0  0  0  0  0  0  0  0  0  0
  169.3170  210.6910  205.9510 C   0  0  0  0  0  0  0  0  0  0  0  0
  168.0840  210.0800  206.6140 C   0  0  0  0  0  0  0  0  0  0  0  0
  166.8680  210.0780  205.6860 C   0  0  0  0  0  0  0  0  0  0  0  0
  165.6440  209.9370  206.4510 N   0  0  0  0  0  0  0  0  0  0  0  0
  172.4880  208.6020  206.9500 C   0  0  0  0  0  0  0  0  0  0  0  0
  172.4410  208.0640  208.2290 C   0  0  0  0  0  0  0  0  0  0  0  0
  171.2170  207.9730  208.9120 O   0  0  0  0  0  0  0  0  0  0  0  0
  171.2890  208.3040  210.2730 C   0  0  0  0  0  0  0  0  0  0  0  0
  169.8770  208.4960  210.8180 C   0  0  0  0  0  0  0  0  0  0  0  0
  169.3180  207.5300  211.6340 C   0  0  0  0  0  0  0  0  0  0  0  0
  168.0390  207.7010  212.1320 C   0  0  0  0  0  0  0  0  0  0  0  0
  167.4220  206.6340  213.0300 C   0  0  0  0  0  0  0  0  0  0  0  0
  167.3190  208.8400  211.8160 C   0  0  0  0  0  0  0  0  0  0  0  0
  167.8790  209.8070  211.0010 C   0  0  0  0  0  0  0  0  0  0  0  0
  169.1580  209.6360  210.5020 C   0  0  0  0  0  0  0  0  0  0  0  0
  173.6100  207.6250  208.8330 C   0  0  0  0  0  0  0  0  0  0  0  0
  174.8200  207.7160  208.1630 C   0  0  0  0  0  0  0  0  0  0  0  0
  174.8640  208.2470  206.8850 C   0  0  0  0  0  0  0  0  0  0  0  0
  173.7000  208.6880  206.2790 C   0  0  0  0  0  0  0  0  0  0  0  0
  170.0940  211.5780  208.2430 H   0  0  0  0  0  0  0  0  0  0  0  0
  171.4740  210.5190  208.5190 H   0  0  0  0  0  0  0  0  0  0  0  0
  171.2850  213.9190  208.6450 H   0  0  0  0  0  0  0  0  0  0  0  0
  173.2070  215.4300  207.3390 H   0  0  0  0  0  0  0  0  0  0  0  0
  174.4170  213.9370  205.4720 H   0  0  0  0  0  0  0  0  0  0  0  0
  169.2300  211.7730  205.9640 H   0  0  0  0  0  0  0  0  0  0  0  0
  169.3810  210.3500  204.9250 H   0  0  0  0  0  0  0  0  0  0  0  0
  168.3100  209.0580  206.9000 H   0  0  0  0  0  0  0  0  0  0  0  0
  167.8480  210.6510  207.5050 H   0  0  0  0  0  0  0  0  0  0  0  0
  166.9520  209.2510  204.9890 H   0  0  0  0  0  0  0  0  0  0  0  0
  166.8390  211.0100  205.1320 H   0  0  0  0  0  0  0  0  0  0  0  0
  165.8320  210.1030  207.4210 H   0  0  0  0  0  0  0  0  0  0  0  0
  164.9650  210.6000  206.1230 H   0  0  0  0  0  0  0  0  0  0  0  0
  171.8540  209.2200  210.3950 H   0  0  0  0  0  0  0  0  0  0  0  0
  171.7740  207.5040  210.8210 H   0  0  0  0  0  0  0  0  0  0  0  0
  169.8820  206.6380  211.8820 H   0  0  0  0  0  0  0  0  0  0  0  0
  168.2080  206.1080  213.5590 H   0  0  0  0  0  0  0  0  0  0  0  0
  166.8590  205.9290  212.4240 H   0  0  0  0  0  0  0  0  0  0  0  0
  166.7570  207.1050  213.7470 H   0  0  0  0  0  0  0  0  0  0  0  0
  166.3170  208.9730  212.2060 H   0  0  0  0  0  0  0  0  0  0  0  0
  167.3160  210.6980  210.7540 H   0  0  0  0  0  0  0  0  0  0  0  0
  169.5970  210.3940  209.8650 H   0  0  0  0  0  0  0  0  0  0  0  0
  173.5800  207.2080  209.8330 H   0  0  0  0  0  0  0  0  0  0  0  0
  175.7300  207.3690  208.6390 H   0  0  0  0  0  0  0  0  0  0  0  0
  175.8090  208.3190  206.3600 H   0  0  0  0  0  0  0  0  0  0  0  0
  173.7350  209.1050  205.2790 H   0  0  0  0  0  0  0  0  0  0  0  0
  1  2  2  0  0  0  0
  2  3  1  0  0  0  0
  3  4  1  0  0  0  0
  4  5  1  0  0  0  0
  5  6  2  0  0  0  0
  6  7  1  0  0  0  0
  7  8  2  0  0  0  0
  5  9  1  0  0  0  0
  8  9  1  0  0  0  0
  3 10  1  0  0  0  0
 10 11  1  0  0  0  0
 11 12  1  0  0  0  0
 12 13  1  0  0  0  0
  2 14  1  0  0  0  0
 14 15  2  0  0  0  0
 15 16  1  0  0  0  0
 16 17  1  0  0  0  0
 17 18  1  0  0  0  0
 18 19  1  0  0  0  0
 19 20  2  0  0  0  0
 20 21  1  0  0  0  0
 20 22  1  0  0  0  0
 22 23  2  0  0  0  0
 18 24  2  0  0  0  0
 23 24  1  0  0  0  0
 15 25  1  0  0  0  0
 25 26  2  0  0  0  0
 26 27  1  0  0  0  0
 14 28  1  0  0  0  0
 27 28  2  0  0  0  0
  4 29  1  0  0  0  0
  4 30  1  0  0  0  0
  6 31  1  0  0  0  0
  7 32  1  0  0  0  0
  8 33  1  0  0  0  0
 10 34  1  0  0  0  0
 10 35  1  0  0  0  0
 11 36  1  0  0  0  0
 11 37  1  0  0  0  0
 12 38  1  0  0  0  0
 12 39  1  0  0  0  0
 13 40  1  0  0  0  0
 13 41  1  0  0  0  0
 17 42  1  0  0  0  0
 17 43  1  0  0  0  0
 19 44  1  0  0  0  0
 21 45  1  0  0  0  0
 21 46  1  0  0  0  0
 21 47  1  0  0  0  0
 22 48  1  0  0  0  0
 23 49  1  0  0  0  0
 24 50  1  0  0  0  0
 25 51  1  0  0  0  0
 26 52  1  0  0  0  0
 27 53  1  0  0  0  0
 28 54  1  0  0  0  0
M  END
$$$$
