9B6G
  PyMOL3.1          3D                             0

 54 56  0  0  0  0  0  0  0  0999 V2000
  208.4670  174.8020  205.3400 O   0  0  0  0  0  0  0  0  0  0  0  0
  209.0920  174.3830  206.2550 C   0  0  0  0  0  0  0  0  0  0  0  0
  210.3000  175.0840  206.6680 N   0  0  0  0  0  0  0  0  0  0  0  0
  211.1220  174.6370  207.7790 C   0  0  0  0  0  0  0  0  0  0  0  0
  212.2370  173.7060  207.3060 C   0  0  0  0  0  0  0  0  0  0  0  0
  213.5610  173.6780  207.8460 C   0  0  0  0  0  0  0  0  0  0  0  0
  214.3930  172.6210  207.1270 C   0  0  0  0  0  0  0  0  0  0  0  0
  213.5940  171.9740  206.1290 C   0  0  0  0  0  0  0  0  0  0  0  0
  212.1040  172.6030  206.1310 S   0  0  0  0  0  0  0  0  0  0  0  0
  210.6910  176.2830  205.9510 C   0  0  0  0  0  0  0  0  0  0  0  0
  210.0800  177.5160  206.6140 C   0  0  0  0  0  0  0  0  0  0  0  0
  210.0780  178.7320  205.6870 C   0  0  0  0  0  0  0  0  0  0  0  0
  209.9380  179.9560  206.4510 N   0  0  0  0  0  0  0  0  0  0  0  0
  208.6020  173.1120  206.9500 C   0  0  0  0  0  0  0  0  0  0  0  0
  208.0640  173.1590  208.2290 C   0  0  0  0  0  0  0  0  0  0  0  0
  207.9730  174.3830  208.9120 O   0  0  0  0  0  0  0  0  0  0  0  0
  208.3040  174.3110  210.2730 C   0  0  0  0  0  0  0  0  0  0  0  0
  208.4970  175.7230  210.8180 C   0  0  0  0  0  0  0  0  0  0  0  0
  207.5300  176.2820  211.6340 C   0  0  0  0  0  0  0  0  0  0  0  0
  207.7010  177.5610  212.1320 C   0  0  0  0  0  0  0  0  0  0  0  0
  206.6340  178.1790  213.0300 C   0  0  0  0  0  0  0  0  0  0  0  0
  208.8400  178.2810  211.8160 C   0  0  0  0  0  0  0  0  0  0  0  0
  209.8070  177.7210  211.0010 C   0  0  0  0  0  0  0  0  0  0  0  0
  209.6360  176.4420  210.5020 C   0  0  0  0  0  0  0  0  0  0  0  0
  207.6250  171.9900  208.8330 C   0  0  0  0  0  0  0  0  0  0  0  0
  207.7160  170.7800  208.1630 C   0  0  0  0  0  0  0  0  0  0  0  0
  208.2470  170.7360  206.8850 C   0  0  0  0  0  0  0  0  0  0  0  0
  208.6880  171.9000  206.2790 C   0  0  0  0  0  0  0  0  0  0  0  0
  211.5780  175.5060  208.2430 H   0  0  0  0  0  0  0  0  0  0  0  0
  210.5190  174.1260  208.5190 H   0  0  0  0  0  0  0  0  0  0  0  0
  213.9190  174.3150  208.6450 H   0  0  0  0  0  0  0  0  0  0  0  0
  215.4300  172.3930  207.3390 H   0  0  0  0  0  0  0  0  0  0  0  0
  213.9370  171.1830  205.4720 H   0  0  0  0  0  0  0  0  0  0  0  0
  211.7730  176.3700  205.9640 H   0  0  0  0  0  0  0  0  0  0  0  0
  210.3500  176.2190  204.9250 H   0  0  0  0  0  0  0  0  0  0  0  0
  209.0580  177.2900  206.9000 H   0  0  0  0  0  0  0  0  0  0  0  0
  210.6510  177.7520  207.5050 H   0  0  0  0  0  0  0  0  0  0  0  0
  209.2510  178.6480  204.9890 H   0  0  0  0  0  0  0  0  0  0  0  0
  211.0100  178.7610  205.1330 H   0  0  0  0  0  0  0  0  0  0  0  0
  210.1030  179.7680  207.4210 H   0  0  0  0  0  0  0  0  0  0  0  0
  210.6000  180.6350  206.1230 H   0  0  0  0  0  0  0  0  0  0  0  0
  209.2200  173.7460  210.3950 H   0  0  0  0  0  0  0  0  0  0  0  0
  207.5040  173.8260  210.8210 H   0  0  0  0  0  0  0  0  0  0  0  0
  206.6380  175.7180  211.8820 H   0  0  0  0  0  0  0  0  0  0  0  0
  206.1080  177.3920  213.5590 H   0  0  0  0  0  0  0  0  0  0  0  0
  205.9290  178.7410  212.4240 H   0  0  0  0  0  0  0  0  0  0  0  0
  207.1050  178.8430  213.7470 H   0  0  0  0  0  0  0  0  0  0  0  0
  208.9730  179.2830  212.2060 H   0  0  0  0  0  0  0  0  0  0  0  0
  210.6980  178.2840  210.7540 H   0  0  0  0  0  0  0  0  0  0  0  0
  210.3940  176.0040  209.8650 H   0  0  0  0  0  0  0  0  0  0  0  0
  207.2080  172.0200  209.8330 H   0  0  0  0  0  0  0  0  0  0  0  0
  207.3700  169.8700  208.6390 H   0  0  0  0  0  0  0  0  0  0  0  0
  208.3190  169.7910  206.3600 H   0  0  0  0  0  0  0  0  0  0  0  0
  209.1050  171.8650  205.2790 H   0  0  0  0  0  0  0  0  0  0  0  0
  1  2  2  0  0  0  0
  2  3  1  0  0  0  0
  3  4  1  0  0  0  0
  4  5  1  0  0  0  0
  5  6  2  0  0  0  0
  6  7  1  0  0  0  0
  7  8  2  0  0  0  0
  5  9  1  0  0  0  0
  8  9  1  0  0  0  0
  3 10  1  0  0  0  0
 10 11  1  0  0  0  0
 11 12  1  0  0  0  0
 12 13  1  0  0  0  0
  2 14  1  0  0  0  0
 14 15  2  0  0  0  0
 15 16  1  0  0  0  0
 16 17  1  0  0  0  0
 17 18  1  0  0  0  0
 18 19  1  0  0  0  0
 19 20  2  0  0  0  0
 20 21  1  0  0  0  0
 20 22  1  0  0  0  0
 22 23  2  0  0  0  0
 18 24  2  0  0  0  0
 23 24  1  0  0  0  0
 15 25  1  0  0  0  0
 25 26  2  0  0  0  0
 26 27  1  0  0  0  0
 14 28  1  0  0  0  0
 27 28  2  0  0  0  0
  4 29  1  0  0  0  0
  4 30  1  0  0  0  0
  6 31  1  0  0  0  0
  7 32  1  0  0  0  0
  8 33  1  0  0  0  0
 10 34  1  0  0  0  0
 10 35  1  0  0  0  0
 11 36  1  0  0  0  0
 11 37  1  0  0  0  0
 12 38  1  0  0  0  0
 12 39  1  0  0  0  0
 13 40  1  0  0  0  0
 13 41  1  0  0  0  0
 17 42  1  0  0  0  0
 17 43  1  0  0  0  0
 19 44  1  0  0  0  0
 21 45  1  0  0  0  0
 21 46  1  0  0  0  0
 21 47  1  0  0  0  0
 22 48  1  0  0  0  0
 23 49  1  0  0  0  0
 24 50  1  0  0  0  0
 25 51  1  0  0  0  0
 26 52  1  0  0  0  0
 27 53  1  0  0  0  0
 28 54  1  0  0  0  0
M  END
$$$$
