9B6G
  PyMOL3.1          3D                             0

 54 56  0  0  0  0  0  0  0  0999 V2000
  174.8010  137.1310  205.3390 O   0  0  0  0  0  0  0  0  0  0  0  0
  174.3820  136.5060  206.2540 C   0  0  0  0  0  0  0  0  0  0  0  0
  175.0830  135.2980  206.6670 N   0  0  0  0  0  0  0  0  0  0  0  0
  174.6360  134.4750  207.7780 C   0  0  0  0  0  0  0  0  0  0  0  0
  173.7050  133.3600  207.3050 C   0  0  0  0  0  0  0  0  0  0  0  0
  173.6770  132.0360  207.8450 C   0  0  0  0  0  0  0  0  0  0  0  0
  172.6200  131.2040  207.1260 C   0  0  0  0  0  0  0  0  0  0  0  0
  171.9730  132.0030  206.1280 C   0  0  0  0  0  0  0  0  0  0  0  0
  172.6020  133.4930  206.1300 S   0  0  0  0  0  0  0  0  0  0  0  0
  176.2820  134.9070  205.9500 C   0  0  0  0  0  0  0  0  0  0  0  0
  177.5150  135.5180  206.6130 C   0  0  0  0  0  0  0  0  0  0  0  0
  178.7310  135.5200  205.6860 C   0  0  0  0  0  0  0  0  0  0  0  0
  179.9550  135.6610  206.4510 N   0  0  0  0  0  0  0  0  0  0  0  0
  173.1100  136.9950  206.9490 C   0  0  0  0  0  0  0  0  0  0  0  0
  173.1570  137.5330  208.2280 C   0  0  0  0  0  0  0  0  0  0  0  0
  174.3810  137.6240  208.9110 O   0  0  0  0  0  0  0  0  0  0  0  0
  174.3090  137.2930  210.2720 C   0  0  0  0  0  0  0  0  0  0  0  0
  175.7210  137.1010  210.8170 C   0  0  0  0  0  0  0  0  0  0  0  0
  176.2800  138.0680  211.6330 C   0  0  0  0  0  0  0  0  0  0  0  0
  177.5590  137.8970  212.1320 C   0  0  0  0  0  0  0  0  0  0  0  0
  178.1760  138.9640  213.0300 C   0  0  0  0  0  0  0  0  0  0  0  0
  178.2790  136.7580  211.8160 C   0  0  0  0  0  0  0  0  0  0  0  0
  177.7190  135.7910  211.0000 C   0  0  0  0  0  0  0  0  0  0  0  0
  176.4400  135.9620  210.5010 C   0  0  0  0  0  0  0  0  0  0  0  0
  171.9880  137.9720  208.8320 C   0  0  0  0  0  0  0  0  0  0  0  0
  170.7780  137.8810  208.1620 C   0  0  0  0  0  0  0  0  0  0  0  0
  170.7340  137.3500  206.8840 C   0  0  0  0  0  0  0  0  0  0  0  0
  171.8990  136.9090  206.2780 C   0  0  0  0  0  0  0  0  0  0  0  0
  175.5050  134.0200  208.2420 H   0  0  0  0  0  0  0  0  0  0  0  0
  174.1250  135.0780  208.5180 H   0  0  0  0  0  0  0  0  0  0  0  0
  174.3140  131.6780  208.6440 H   0  0  0  0  0  0  0  0  0  0  0  0
  172.3930  130.1670  207.3380 H   0  0  0  0  0  0  0  0  0  0  0  0
  171.1830  131.6600  205.4710 H   0  0  0  0  0  0  0  0  0  0  0  0
  176.3690  133.8250  205.9630 H   0  0  0  0  0  0  0  0  0  0  0  0
  176.2180  135.2480  204.9240 H   0  0  0  0  0  0  0  0  0  0  0  0
  177.2890  136.5400  206.8990 H   0  0  0  0  0  0  0  0  0  0  0  0
  177.7510  134.9470  207.5040 H   0  0  0  0  0  0  0  0  0  0  0  0
  178.6470  136.3470  204.9890 H   0  0  0  0  0  0  0  0  0  0  0  0
  178.7600  134.5880  205.1320 H   0  0  0  0  0  0  0  0  0  0  0  0
  179.7670  135.4950  207.4210 H   0  0  0  0  0  0  0  0  0  0  0  0
  180.6340  134.9990  206.1230 H   0  0  0  0  0  0  0  0  0  0  0  0
  173.7440  136.3770  210.3940 H   0  0  0  0  0  0  0  0  0  0  0  0
  173.8240  138.0930  210.8200 H   0  0  0  0  0  0  0  0  0  0  0  0
  175.7160  138.9590  211.8810 H   0  0  0  0  0  0  0  0  0  0  0  0
  177.3890  139.4900  213.5590 H   0  0  0  0  0  0  0  0  0  0  0  0
  178.7380  139.6690  212.4240 H   0  0  0  0  0  0  0  0  0  0  0  0
  178.8410  138.4930  213.7470 H   0  0  0  0  0  0  0  0  0  0  0  0
  179.2810  136.6250  212.2060 H   0  0  0  0  0  0  0  0  0  0  0  0
  178.2820  134.9000  210.7530 H   0  0  0  0  0  0  0  0  0  0  0  0
  176.0020  135.2040  209.8640 H   0  0  0  0  0  0  0  0  0  0  0  0
  172.0180  138.3890  209.8320 H   0  0  0  0  0  0  0  0  0  0  0  0
  169.8680  138.2270  208.6380 H   0  0  0  0  0  0  0  0  0  0  0  0
  169.7890  137.2780  206.3590 H   0  0  0  0  0  0  0  0  0  0  0  0
  171.8640  136.4920  205.2780 H   0  0  0  0  0  0  0  0  0  0  0  0
  1  2  2  0  0  0  0
  2  3  1  0  0  0  0
  3  4  1  0  0  0  0
  4  5  1  0  0  0  0
  5  6  2  0  0  0  0
  6  7  1  0  0  0  0
  7  8  2  0  0  0  0
  5  9  1  0  0  0  0
  8  9  1  0  0  0  0
  3 10  1  0  0  0  0
 10 11  1  0  0  0  0
 11 12  1  0  0  0  0
 12 13  1  0  0  0  0
  2 14  1  0  0  0  0
 14 15  2  0  0  0  0
 15 16  1  0  0  0  0
 16 17  1  0  0  0  0
 17 18  1  0  0  0  0
 18 19  1  0  0  0  0
 19 20  2  0  0  0  0
 20 21  1  0  0  0  0
 20 22  1  0  0  0  0
 22 23  2  0  0  0  0
 18 24  2  0  0  0  0
 23 24  1  0  0  0  0
 15 25  1  0  0  0  0
 25 26  2  0  0  0  0
 26 27  1  0  0  0  0
 14 28  1  0  0  0  0
 27 28  2  0  0  0  0
  4 29  1  0  0  0  0
  4 30  1  0  0  0  0
  6 31  1  0  0  0  0
  7 32  1  0  0  0  0
  8 33  1  0  0  0  0
 10 34  1  0  0  0  0
 10 35  1  0  0  0  0
 11 36  1  0  0  0  0
 11 37  1  0  0  0  0
 12 38  1  0  0  0  0
 12 39  1  0  0  0  0
 13 40  1  0  0  0  0
 13 41  1  0  0  0  0
 17 42  1  0  0  0  0
 17 43  1  0  0  0  0
 19 44  1  0  0  0  0
 21 45  1  0  0  0  0
 21 46  1  0  0  0  0
 21 47  1  0  0  0  0
 22 48  1  0  0  0  0
 23 49  1  0  0  0  0
 24 50  1  0  0  0  0
 25 51  1  0  0  0  0
 26 52  1  0  0  0  0
 27 53  1  0  0  0  0
 28 54  1  0  0  0  0
M  END
$$$$
