7LPQ
  PyMOL3.1          3D                             0

176184  0  0  0  0  0  0  0  0999 V2000
   22.8850    4.6240    5.8760 C   0  0  0  0  0  0  0  0  0  0  0  0
   22.7950    4.1880    7.3120 N   0  0  0  0  0  0  0  0  0  0  0  0
   23.7390    3.0870    7.4990 C   0  0  0  0  0  0  0  0  0  0  0  0
   23.1290    2.2080    8.6860 C   0  0  0  0  0  0  0  0  0  0  0  0
   23.1650    0.7380    8.6230 N   0  0  0  0  0  0  0  0  0  0  0  0
   24.2390   -0.0740    8.6840 C   0  0  0  0  0  0  0  0  0  0  0  0
   25.3400    0.4860    8.8040 O   0  0  0  0  0  0  0  0  0  0  0  0
   24.2380   -1.6150    8.6430 C   0  0  0  0  0  0  0  0  0  0  0  0
   24.9740   -2.3700    7.4960 C   0  0  0  0  0  0  0  0  0  0  0  0
   24.2870   -3.1320    6.5300 C   0  0  0  0  0  0  0  0  0  0  0  0
   24.9720   -3.8110    5.4960 C   0  0  0  0  0  0  0  0  0  0  0  0
   26.3830   -3.7640    5.3690 C   0  0  0  0  0  0  0  0  0  0  0  0
   27.0990   -2.9990    6.3270 C   0  0  0  0  0  0  0  0  0  0  0  0
   26.3820   -2.3290    7.3650 C   0  0  0  0  0  0  0  0  0  0  0  0
   28.5420   -2.9570    6.2130 N   0  0  0  0  0  0  0  0  0  0  0  0
   29.2290   -3.5340    5.1660 C   0  0  0  0  0  0  0  0  0  0  0  0
   30.4640   -3.4580    5.0870 O   0  0  0  0  0  0  0  0  0  0  0  0
   28.4620   -4.1060    4.0700 C   0  0  0  0  0  0  0  0  0  0  0  0
   27.0380   -4.4290    4.3810 O   0  0  0  0  0  0  0  0  0  0  0  0
   21.6690    2.7470    8.7090 C   0  0  0  0  0  0  0  0  0  0  0  0
   21.4780    3.4930    7.4580 C   0  0  0  0  0  0  0  0  0  0  0  0
   20.3140    4.4680    7.4370 C   0  0  0  0  0  0  0  0  0  0  0  0
   20.3700    5.3370    8.5610 O   0  0  0  0  0  0  0  0  0  0  0  0
   22.6030    3.9200    5.3230 H   0  0  0  0  0  0  0  0  0  0  0  0
   23.7750    4.8480    5.6790 H   0  0  0  0  0  0  0  0  0  0  0  0
   22.3320    5.3720    5.7480 H   0  0  0  0  0  0  0  0  0  0  0  0
   24.5520    3.5280    7.6610 H   0  0  0  0  0  0  0  0  0  0  0  0
   23.7810    2.6950    6.6470 H   0  0  0  0  0  0  0  0  0  0  0  0
   23.6130    2.4450    9.4540 H   0  0  0  0  0  0  0  0  0  0  0  0
   22.3400    0.4810    8.5370 H   0  0  0  0  0  0  0  0  0  0  0  0
   24.5400   -1.8670    9.4960 H   0  0  0  0  0  0  0  0  0  0  0  0
   23.3300   -1.8450    8.7050 H   0  0  0  0  0  0  0  0  0  0  0  0
   23.3610   -3.1940    6.5700 H   0  0  0  0  0  0  0  0  0  0  0  0
   24.4620   -4.2970    4.8900 H   0  0  0  0  0  0  0  0  0  0  0  0
   26.8570   -1.8360    7.9930 H   0  0  0  0  0  0  0  0  0  0  0  0
   29.0220   -2.5620    6.8070 H   0  0  0  0  0  0  0  0  0  0  0  0
   28.9970   -4.8640    3.7860 H   0  0  0  0  0  0  0  0  0  0  0  0
   28.5860   -3.4720    3.3470 H   0  0  0  0  0  0  0  0  0  0  0  0
   21.0550    2.0000    8.7910 H   0  0  0  0  0  0  0  0  0  0  0  0
   21.5480    3.3050    9.4930 H   0  0  0  0  0  0  0  0  0  0  0  0
   21.3930    3.0170    6.6170 H   0  0  0  0  0  0  0  0  0  0  0  0
   20.3960    4.9240    6.5850 H   0  0  0  0  0  0  0  0  0  0  0  0
   19.5260    3.9030    7.4170 H   0  0  0  0  0  0  0  0  0  0  0  0
   20.3940    6.1450    8.2870 H   0  0  0  0  0  0  0  0  0  0  0  0
  -24.7180    9.5850   56.7980 C   0  0  0  0  0  0  0  0  0  0  0  0
  -24.6130    8.9340   55.4380 N   0  0  0  0  0  0  0  0  0  0  0  0
  -25.4540    7.7360   55.4420 C   0  0  0  0  0  0  0  0  0  0  0  0
  -24.8010    6.7930   54.3290 C   0  0  0  0  0  0  0  0  0  0  0  0
  -24.8560    5.3320   54.5230 N   0  0  0  0  0  0  0  0  0  0  0  0
  -25.9470    4.5570   54.5590 C   0  0  0  0  0  0  0  0  0  0  0  0
  -27.0400    5.1420   54.4110 O   0  0  0  0  0  0  0  0  0  0  0  0
  -26.0150    3.0270   54.7500 C   0  0  0  0  0  0  0  0  0  0  0  0
  -26.5980    2.4810   56.0920 C   0  0  0  0  0  0  0  0  0  0  0  0
  -25.7890    1.9240   57.0930 C   0  0  0  0  0  0  0  0  0  0  0  0
  -26.3400    1.4330   58.3060 C   0  0  0  0  0  0  0  0  0  0  0  0
  -27.7480    1.4760   58.5770 C   0  0  0  0  0  0  0  0  0  0  0  0
  -28.5800    2.0350   57.5730 C   0  0  0  0  0  0  0  0  0  0  0  0
  -27.9900    2.5180   56.3670 C   0  0  0  0  0  0  0  0  0  0  0  0
  -29.9880    2.0840   57.8170 N   0  0  0  0  0  0  0  0  0  0  0  0
  -30.5780    1.5680   58.9660 C   0  0  0  0  0  0  0  0  0  0  0  0
  -31.8140    1.6010   59.1470 O   0  0  0  0  0  0  0  0  0  0  0  0
  -29.7310    0.8890   59.9480 C   0  0  0  0  0  0  0  0  0  0  0  0
  -28.2590    1.0070   59.7460 O   0  0  0  0  0  0  0  0  0  0  0  0
  -23.3480    7.3740   54.2760 C   0  0  0  0  0  0  0  0  0  0  0  0
  -23.2270    8.3230   55.3550 C   0  0  0  0  0  0  0  0  0  0  0  0
  -22.2680    9.4930   55.1820 C   0  0  0  0  0  0  0  0  0  0  0  0
  -22.0320    9.7300   53.7970 O   0  0  0  0  0  0  0  0  0  0  0  0
  -25.5960    9.4910   57.1160 H   0  0  0  0  0  0  0  0  0  0  0  0
  -24.5020   10.4960   56.7200 H   0  0  0  0  0  0  0  0  0  0  0  0
  -24.1190    9.1650   57.3870 H   0  0  0  0  0  0  0  0  0  0  0  0
  -26.3150    8.0720   55.2760 H   0  0  0  0  0  0  0  0  0  0  0  0
  -25.4180    7.4450   56.3340 H   0  0  0  0  0  0  0  0  0  0  0  0
  -25.2390    6.9610   53.5160 H   0  0  0  0  0  0  0  0  0  0  0  0
  -24.0360    5.0610   54.6110 H   0  0  0  0  0  0  0  0  0  0  0  0
  -25.1460    2.7200   54.5730 H   0  0  0  0  0  0  0  0  0  0  0  0
  -26.4690    2.7070   53.9930 H   0  0  0  0  0  0  0  0  0  0  0  0
  -24.8700    1.8730   56.9650 H   0  0  0  0  0  0  0  0  0  0  0  0
  -25.7520    1.0760   58.9310 H   0  0  0  0  0  0  0  0  0  0  0  0
  -28.5420    2.8810   55.7140 H   0  0  0  0  0  0  0  0  0  0  0  0
  -30.5230    2.4410   57.2470 H   0  0  0  0  0  0  0  0  0  0  0  0
  -30.0520    1.2320   60.7960 H   0  0  0  0  0  0  0  0  0  0  0  0
  -30.0680   -0.0210   59.9440 H   0  0  0  0  0  0  0  0  0  0  0  0
  -22.7140    6.6440   54.3570 H   0  0  0  0  0  0  0  0  0  0  0  0
  -23.2030    7.7830   53.4090 H   0  0  0  0  0  0  0  0  0  0  0  0
  -23.0320    7.9430   56.2260 H   0  0  0  0  0  0  0  0  0  0  0  0
  -21.4760    9.2350   55.6780 H   0  0  0  0  0  0  0  0  0  0  0  0
  -22.6990   10.2320   55.6390 H   0  0  0  0  0  0  0  0  0  0  0  0
  -21.7710   10.5330   53.7020 H   0  0  0  0  0  0  0  0  0  0  0  0
   36.8680   19.8470   69.0430 C   0  0  0  0  0  0  0  0  0  0  0  0
   36.0740   18.8710   69.8680 N   0  0  0  0  0  0  0  0  0  0  0  0
   36.0540   17.5740   69.1790 C   0  0  0  0  0  0  0  0  0  0  0  0
   34.6470   16.9330   69.5350 C   0  0  0  0  0  0  0  0  0  0  0  0
   33.8120   16.4030   68.4310 N   0  0  0  0  0  0  0  0  0  0  0  0
   34.1080   15.4120   67.5600 C   0  0  0  0  0  0  0  0  0  0  0  0
   35.2270   14.8640   67.6970 O   0  0  0  0  0  0  0  0  0  0  0  0
   33.2080   14.8590   66.4360 C   0  0  0  0  0  0  0  0  0  0  0  0
   33.7250   14.8280   64.9710 C   0  0  0  0  0  0  0  0  0  0  0  0
   33.1420   15.5890   63.9400 C   0  0  0  0  0  0  0  0  0  0  0  0
   33.6400   15.5380   62.6130 C   0  0  0  0  0  0  0  0  0  0  0  0
   34.7470   14.7190   62.2620 C   0  0  0  0  0  0  0  0  0  0  0  0
   35.3510   13.9470   63.2880 C   0  0  0  0  0  0  0  0  0  0  0  0
   34.8220   14.0190   64.6020 C   0  0  0  0  0  0  0  0  0  0  0  0
   36.4740   13.1170   62.9230 N   0  0  0  0  0  0  0  0  0  0  0  0
   37.1260   13.2650   61.6880 C   0  0  0  0  0  0  0  0  0  0  0  0
   38.1100   12.5860   61.3550 O   0  0  0  0  0  0  0  0  0  0  0  0
   36.6650   14.3640   60.8550 C   0  0  0  0  0  0  0  0  0  0  0  0
   35.2290   14.6580   61.0030 O   0  0  0  0  0  0  0  0  0  0  0  0
   33.9340   18.1310   70.2490 C   0  0  0  0  0  0  0  0  0  0  0  0
   34.6390   19.3070   69.8370 C   0  0  0  0  0  0  0  0  0  0  0  0
   34.5470   20.5610   70.6420 C   0  0  0  0  0  0  0  0  0  0  0  0
   34.2110   20.2320   71.9750 O   0  0  0  0  0  0  0  0  0  0  0  0
   37.2950   19.3840   68.3470 H   0  0  0  0  0  0  0  0  0  0  0  0
   36.2860   20.4920   68.6870 H   0  0  0  0  0  0  0  0  0  0  0  0
   37.5080   20.2620   69.5910 H   0  0  0  0  0  0  0  0  0  0  0  0
   36.8210   17.1450   69.5090 H   0  0  0  0  0  0  0  0  0  0  0  0
   36.2090   17.8060   68.2830 H   0  0  0  0  0  0  0  0  0  0  0  0
   34.8200   16.2300   70.1330 H   0  0  0  0  0  0  0  0  0  0  0  0
   33.0740   16.8590   68.4460 H   0  0  0  0  0  0  0  0  0  0  0  0
   32.4040   15.3360   66.5280 H   0  0  0  0  0  0  0  0  0  0  0  0
   32.9440   14.0130   66.7470 H   0  0  0  0  0  0  0  0  0  0  0  0
   32.4160   16.1370   64.1270 H   0  0  0  0  0  0  0  0  0  0  0  0
   33.2180   16.0610   61.9720 H   0  0  0  0  0  0  0  0  0  0  0  0
   35.2150   13.5050   65.2700 H   0  0  0  0  0  0  0  0  0  0  0  0
   36.7750   12.5090   63.4510 H   0  0  0  0  0  0  0  0  0  0  0  0
   36.9440   14.1220   59.9590 H   0  0  0  0  0  0  0  0  0  0  0  0
   37.2590   15.0990   61.0740 H   0  0  0  0  0  0  0  0  0  0  0  0
   33.9640   17.9970   71.2090 H   0  0  0  0  0  0  0  0  0  0  0  0
   32.9990   18.1480   69.9910 H   0  0  0  0  0  0  0  0  0  0  0  0
   34.4520   19.6020   68.9320 H   0  0  0  0  0  0  0  0  0  0  0  0
   33.8820   21.1020   70.1890 H   0  0  0  0  0  0  0  0  0  0  0  0
   35.4150   20.9840   70.5460 H   0  0  0  0  0  0  0  0  0  0  0  0
   34.3880   20.9060   72.4740 H   0  0  0  0  0  0  0  0  0  0  0  0
  -38.5800   11.8160   -8.9160 C   0  0  0  0  0  0  0  0  0  0  0  0
  -37.8570   10.6100   -9.3640 N   0  0  0  0  0  0  0  0  0  0  0  0
  -37.8710    9.5710   -8.3240 C   0  0  0  0  0  0  0  0  0  0  0  0
  -36.5370    8.7190   -8.5730 C   0  0  0  0  0  0  0  0  0  0  0  0
  -35.6280    8.4370   -7.4420 N   0  0  0  0  0  0  0  0  0  0  0  0
  -35.8370    7.5950   -6.4170 C   0  0  0  0  0  0  0  0  0  0  0  0
  -36.9320    6.9860   -6.4010 O   0  0  0  0  0  0  0  0  0  0  0  0
  -34.8790    7.2850   -5.2740 C   0  0  0  0  0  0  0  0  0  0  0  0
  -35.3220    7.5950   -3.8560 C   0  0  0  0  0  0  0  0  0  0  0  0
  -34.6840    8.5530   -3.0490 C   0  0  0  0  0  0  0  0  0  0  0  0
  -35.1270    8.8120   -1.7360 C   0  0  0  0  0  0  0  0  0  0  0  0
  -36.2410    8.1210   -1.1750 C   0  0  0  0  0  0  0  0  0  0  0  0
  -36.8900    7.1600   -1.9810 C   0  0  0  0  0  0  0  0  0  0  0  0
  -36.4190    6.9250   -3.2900 C   0  0  0  0  0  0  0  0  0  0  0  0
  -38.0070    6.4690   -1.4110 N   0  0  0  0  0  0  0  0  0  0  0  0
  -38.6410    6.9480   -0.2820 C   0  0  0  0  0  0  0  0  0  0  0  0
  -39.6180    6.3710    0.2530 O   0  0  0  0  0  0  0  0  0  0  0  0
  -38.1080    8.1580    0.3370 C   0  0  0  0  0  0  0  0  0  0  0  0
  -36.6900    8.3580    0.0610 O   0  0  0  0  0  0  0  0  0  0  0  0
  -35.8200    9.6070   -9.6480 C   0  0  0  0  0  0  0  0  0  0  0  0
  -36.4000   10.9290   -9.5220 C   0  0  0  0  0  0  0  0  0  0  0  0
  -36.2870   11.8990  -10.6770 C   0  0  0  0  0  0  0  0  0  0  0  0
  -36.3270   11.1820  -11.8930 O   0  0  0  0  0  0  0  0  0  0  0  0
  -39.2620   11.5620   -8.3230 H   0  0  0  0  0  0  0  0  0  0  0  0
  -38.9500   12.2470   -9.6630 H   0  0  0  0  0  0  0  0  0  0  0  0
  -37.9770   12.3900   -8.4820 H   0  0  0  0  0  0  0  0  0  0  0  0
  -37.9280   10.0650   -7.5270 H   0  0  0  0  0  0  0  0  0  0  0  0
  -38.6940    9.1400   -8.4620 H   0  0  0  0  0  0  0  0  0  0  0  0
  -36.8220    7.8930   -8.9170 H   0  0  0  0  0  0  0  0  0  0  0  0
  -34.9200    8.9250   -7.5650 H   0  0  0  0  0  0  0  0  0  0  0  0
  -34.0760    7.7110   -5.5110 H   0  0  0  0  0  0  0  0  0  0  0  0
  -34.6400    6.3850   -5.3970 H   0  0  0  0  0  0  0  0  0  0  0  0
  -33.9570    9.0260   -3.3820 H   0  0  0  0  0  0  0  0  0  0  0  0
  -34.6700    9.4520   -1.2410 H   0  0  0  0  0  0  0  0  0  0  0  0
  -36.8530    6.2940   -3.8160 H   0  0  0  0  0  0  0  0  0  0  0  0
  -38.3140    5.7420   -1.7530 H   0  0  0  0  0  0  0  0  0  0  0  0
  -38.6920    8.8700    0.0330 H   0  0  0  0  0  0  0  0  0  0  0  0
  -38.3380    8.0770    1.2760 H   0  0  0  0  0  0  0  0  0  0  0  0
  -34.8650    9.6040   -9.4820 H   0  0  0  0  0  0  0  0  0  0  0  0
  -35.9600    9.2230  -10.5270 H   0  0  0  0  0  0  0  0  0  0  0  0
  -36.1240   11.4450   -8.7490 H   0  0  0  0  0  0  0  0  0  0  0  0
  -35.4530   12.3720  -10.5250 H   0  0  0  0  0  0  0  0  0  0  0  0
  -37.0250   12.5160  -10.5580 H   0  0  0  0  0  0  0  0  0  0  0  0
  -36.2460   11.7330  -12.5370 H   0  0  0  0  0  0  0  0  0  0  0  0
  1  2  1  0  0  0  0
  2  3  1  0  0  0  0
  3  4  1  0  0  0  0
  4  5  1  0  0  0  0
  5  6  1  0  0  0  0
  6  7  2  0  0  0  0
  6  8  1  0  0  0  0
  8  9  1  0  0  0  0
  9 10  2  0  0  0  0
 10 11  1  0  0  0  0
 11 12  2  0  0  0  0
 12 13  1  0  0  0  0
  9 14  1  0  0  0  0
 13 14  2  0  0  0  0
 13 15  1  0  0  0  0
 15 16  1  0  0  0  0
 16 17  2  0  0  0  0
 16 18  1  0  0  0  0
 12 19  1  0  0  0  0
 18 19  1  0  0  0  0
  4 20  1  0  0  0  0
  2 21  1  0  0  0  0
 20 21  1  0  0  0  0
 21 22  1  0  0  0  0
 22 23  1  0  0  0  0
  1 24  1  0  0  0  0
  1 25  1  0  0  0  0
  1 26  1  0  0  0  0
  3 27  1  0  0  0  0
  3 28  1  0  0  0  0
  4 29  1  0  0  0  0
  5 30  1  0  0  0  0
  8 31  1  0  0  0  0
  8 32  1  0  0  0  0
 10 33  1  0  0  0  0
 11 34  1  0  0  0  0
 14 35  1  0  0  0  0
 15 36  1  0  0  0  0
 18 37  1  0  0  0  0
 18 38  1  0  0  0  0
 20 39  1  0  0  0  0
 20 40  1  0  0  0  0
 21 41  1  0  0  0  0
 22 42  1  0  0  0  0
 22 43  1  0  0  0  0
 23 44  1  0  0  0  0
 45 46  1  0  0  0  0
 46 47  1  0  0  0  0
 47 48  1  0  0  0  0
 48 49  1  0  0  0  0
 49 50  1  0  0  0  0
 50 51  2  0  0  0  0
 50 52  1  0  0  0  0
 52 53  1  0  0  0  0
 53 54  2  0  0  0  0
 54 55  1  0  0  0  0
 55 56  2  0  0  0  0
 56 57  1  0  0  0  0
 53 58  1  0  0  0  0
 57 58  2  0  0  0  0
 57 59  1  0  0  0  0
 59 60  1  0  0  0  0
 60 61  2  0  0  0  0
 60 62  1  0  0  0  0
 56 63  1  0  0  0  0
 62 63  1  0  0  0  0
 48 64  1  0  0  0  0
 46 65  1  0  0  0  0
 64 65  1  0  0  0  0
 65 66  1  0  0  0  0
 66 67  1  0  0  0  0
 45 68  1  0  0  0  0
 45 69  1  0  0  0  0
 45 70  1  0  0  0  0
 47 71  1  0  0  0  0
 47 72  1  0  0  0  0
 48 73  1  0  0  0  0
 49 74  1  0  0  0  0
 52 75  1  0  0  0  0
 52 76  1  0  0  0  0
 54 77  1  0  0  0  0
 55 78  1  0  0  0  0
 58 79  1  0  0  0  0
 59 80  1  0  0  0  0
 62 81  1  0  0  0  0
 62 82  1  0  0  0  0
 64 83  1  0  0  0  0
 64 84  1  0  0  0  0
 65 85  1  0  0  0  0
 66 86  1  0  0  0  0
 66 87  1  0  0  0  0
 67 88  1  0  0  0  0
 89 90  1  0  0  0  0
 90 91  1  0  0  0  0
 91 92  1  0  0  0  0
 92 93  1  0  0  0  0
 93 94  1  0  0  0  0
 94 95  2  0  0  0  0
 94 96  1  0  0  0  0
 96 97  1  0  0  0  0
 97 98  2  0  0  0  0
 98 99  1  0  0  0  0
 99100  2  0  0  0  0
100101  1  0  0  0  0
 97102  1  0  0  0  0
101102  2  0  0  0  0
101103  1  0  0  0  0
103104  1  0  0  0  0
104105  2  0  0  0  0
104106  1  0  0  0  0
100107  1  0  0  0  0
106107  1  0  0  0  0
 92108  1  0  0  0  0
 90109  1  0  0  0  0
108109  1  0  0  0  0
109110  1  0  0  0  0
110111  1  0  0  0  0
 89112  1  0  0  0  0
 89113  1  0  0  0  0
 89114  1  0  0  0  0
 91115  1  0  0  0  0
 91116  1  0  0  0  0
 92117  1  0  0  0  0
 93118  1  0  0  0  0
 96119  1  0  0  0  0
 96120  1  0  0  0  0
 98121  1  0  0  0  0
 99122  1  0  0  0  0
102123  1  0  0  0  0
103124  1  0  0  0  0
106125  1  0  0  0  0
106126  1  0  0  0  0
108127  1  0  0  0  0
108128  1  0  0  0  0
109129  1  0  0  0  0
110130  1  0  0  0  0
110131  1  0  0  0  0
111132  1  0  0  0  0
133134  1  0  0  0  0
134135  1  0  0  0  0
135136  1  0  0  0  0
136137  1  0  0  0  0
137138  1  0  0  0  0
138139  2  0  0  0  0
138140  1  0  0  0  0
140141  1  0  0  0  0
141142  2  0  0  0  0
142143  1  0  0  0  0
143144  2  0  0  0  0
144145  1  0  0  0  0
141146  1  0  0  0  0
145146  2  0  0  0  0
145147  1  0  0  0  0
147148  1  0  0  0  0
148149  2  0  0  0  0
148150  1  0  0  0  0
144151  1  0  0  0  0
150151  1  0  0  0  0
136152  1  0  0  0  0
134153  1  0  0  0  0
152153  1  0  0  0  0
153154  1  0  0  0  0
154155  1  0  0  0  0
133156  1  0  0  0  0
133157  1  0  0  0  0
133158  1  0  0  0  0
135159  1  0  0  0  0
135160  1  0  0  0  0
136161  1  0  0  0  0
137162  1  0  0  0  0
140163  1  0  0  0  0
140164  1  0  0  0  0
142165  1  0  0  0  0
143166  1  0  0  0  0
146167  1  0  0  0  0
147168  1  0  0  0  0
150169  1  0  0  0  0
150170  1  0  0  0  0
152171  1  0  0  0  0
152172  1  0  0  0  0
153173  1  0  0  0  0
154174  1  0  0  0  0
154175  1  0  0  0  0
155176  1  0  0  0  0
M  END
$$$$
