9EPV
  PyMOL3.1          3D                             0

 78 88  0  0  0  0  0  0  0  0999 V2000
    4.3310  -35.3370   -4.7370 Cl  0  0  0  0  0  0  0  0  0  0  0  0
    4.1290  -36.3640   -3.3520 C   0  0  0  0  0  0  0  0  0  0  0  0
    3.3860  -37.5100   -3.5610 C   0  0  0  0  0  0  0  0  0  0  0  0
    3.3480  -38.5080   -2.5970 C   0  0  0  0  0  0  0  0  0  0  0  0
    2.6360  -39.8030   -2.8740 C   0  0  0  0  0  0  0  0  0  0  0  0
    1.4780  -40.0540   -1.9620 N   0  0  0  0  0  0  0  0  0  0  0  0
    1.2470  -41.5360   -1.8220 C   0  0  0  0  0  0  0  0  0  0  0  0
    0.0400  -41.9060   -0.9310 C   0  0  0  0  0  0  0  0  0  0  0  0
   -0.4130  -42.8830   -2.0300 C   0  0  0  0  0  0  0  0  0  0  0  0
   -0.1100  -44.3670   -1.7610 C   0  0  0  0  0  0  0  0  0  0  0  0
   -1.0830  -44.9940   -0.7620 C   0  0  0  0  0  0  0  0  0  0  0  0
   -2.4720  -44.7760   -1.2160 N   0  0  0  0  0  0  0  0  0  0  0  0
   -3.6850  -45.7440   -0.6660 S   0  0  0  0  0  0  0  0  0  0  0  0
   -4.1310  -45.2190    0.9500 C   0  0  0  0  0  0  0  0  0  0  0  0
   -5.0620  -44.1870    1.1020 C   0  0  0  0  0  0  0  0  0  0  0  0
   -5.3940  -43.7350    2.3730 C   0  0  0  0  0  0  0  0  0  0  0  0
   -4.7790  -44.3380    3.4640 C   0  0  0  0  0  0  0  0  0  0  0  0
   -4.8540  -44.0910    4.8300 N   0  0  0  0  0  0  0  0  0  0  0  0
   -5.6220  -43.0220    5.4560 C   0  0  0  0  0  0  0  0  0  0  0  0
   -4.0150  -44.9510    5.5150 C   0  0  0  0  0  0  0  0  0  0  0  0
   -3.4160  -45.7390    4.5570 N   0  0  0  0  0  0  0  0  0  0  0  0
   -2.5480  -46.8710    4.8580 C   0  0  0  0  0  0  0  0  0  0  0  0
   -3.7980  -44.9710    6.7120 O   0  0  0  0  0  0  0  0  0  0  0  0
   -3.8620  -45.3770    3.2940 C   0  0  0  0  0  0  0  0  0  0  0  0
   -3.5220  -45.8250    2.0390 C   0  0  0  0  0  0  0  0  0  0  0  0
   -4.8180  -45.4690   -1.4910 O   0  0  0  0  0  0  0  0  0  0  0  0
   -3.1550  -47.0730   -0.5740 O   0  0  0  0  0  0  0  0  0  0  0  0
   -2.7850  -43.3410   -1.3400 C   0  0  0  0  0  0  0  0  0  0  0  0
   -1.8930  -42.7380   -2.4100 C   0  0  0  0  0  0  0  0  0  0  0  0
    0.5550  -42.1630   -2.9880 C   0  0  0  0  0  0  0  0  0  0  0  0
    4.0560  -38.3180   -1.4210 C   0  0  0  0  0  0  0  0  0  0  0  0
    4.7970  -37.1680   -1.1970 C   0  0  0  0  0  0  0  0  0  0  0  0
    4.8460  -36.1530   -2.1510 C   0  0  0  0  0  0  0  0  0  0  0  0
    5.5740  -34.8970   -1.7920 C   0  0  0  0  0  0  0  0  0  0  0  0
    6.3820  -34.8430   -0.6520 C   0  0  0  0  0  0  0  0  0  0  0  0
    7.0610  -33.6800   -0.3160 C   0  0  0  0  0  0  0  0  0  0  0  0
    6.9490  -32.5530   -1.1060 C   0  0  0  0  0  0  0  0  0  0  0  0
    6.1570  -32.5860   -2.2350 C   0  0  0  0  0  0  0  0  0  0  0  0
    5.4740  -33.7440   -2.5780 C   0  0  0  0  0  0  0  0  0  0  0  0
   37.3660   -4.6880    2.7660 Cl  0  0  0  0  0  0  0  0  0  0  0  0
   38.0130   -4.0150    1.2950 C   0  0  0  0  0  0  0  0  0  0  0  0
   39.1520   -3.2420    1.4310 C   0  0  0  0  0  0  0  0  0  0  0  0
   39.8300   -2.7840    0.3090 C   0  0  0  0  0  0  0  0  0  0  0  0
   41.1550   -2.0860    0.4470 C   0  0  0  0  0  0  0  0  0  0  0  0
   41.2080   -0.7980   -0.3160 N   0  3  0  0  0  0  0  0  0  0  0  0
   42.5950   -0.5290   -0.8390 C   0  0  0  0  0  0  0  0  0  0  0  0
   43.6310   -0.2520    0.2130 C   0  0  0  0  0  0  0  0  0  0  0  0
   44.1420    0.9450   -0.6150 C   0  0  0  0  0  0  0  0  0  0  0  0
   44.3830    2.2510    0.1620 C   0  0  0  0  0  0  0  0  0  0  0  0
   44.7800    3.3790   -0.7770 C   0  0  0  0  0  0  0  0  0  0  0  0
   45.9810    2.9790   -1.5380 N   0  0  0  0  0  0  0  0  0  0  0  0
   46.9290    4.1670   -2.1520 S   0  0  0  0  0  0  0  0  0  0  0  0
   46.2080    4.6850   -3.6660 C   0  0  0  0  0  0  0  0  0  0  0  0
   45.1640    5.6140   -3.6510 C   0  0  0  0  0  0  0  0  0  0  0  0
   44.5570    5.9860   -4.8420 C   0  0  0  0  0  0  0  0  0  0  0  0
   45.0180    5.4190   -6.0290 C   0  0  0  0  0  0  0  0  0  0  0  0
   44.6910    5.6500   -7.3650 N   0  0  0  0  0  0  0  0  0  0  0  0
   43.6490    6.5590   -7.8400 C   0  0  0  0  0  0  0  0  0  0  0  0
   45.5050    4.8980   -8.1920 C   0  0  0  0  0  0  0  0  0  0  0  0
   46.3420    4.1960   -7.3610 N   0  0  0  0  0  0  0  0  0  0  0  0
   47.3830    3.2840   -7.8360 C   0  0  0  0  0  0  0  0  0  0  0  0
   45.4970    4.8660   -9.4110 O   0  0  0  0  0  0  0  0  0  0  0  0
   46.0590    4.5010   -6.0250 C   0  0  0  0  0  0  0  0  0  0  0  0
   46.6650    4.1200   -4.8450 C   0  0  0  0  0  0  0  0  0  0  0  0
   46.8270    5.2710   -1.2530 O   0  0  0  0  0  0  0  0  0  0  0  0
   48.2040    3.5800   -2.4300 O   0  0  0  0  0  0  0  0  0  0  0  0
   45.7310    1.7880   -2.3720 C   0  0  0  0  0  0  0  0  0  0  0  0
   45.3880    0.6260   -1.4540 C   0  0  0  0  0  0  0  0  0  0  0  0
   42.8060    0.9110   -1.3790 C   0  0  0  0  0  0  0  0  0  0  0  0
   39.3290   -3.1040   -0.9410 C   0  0  0  0  0  0  0  0  0  0  0  0
   38.1870   -3.8710   -1.0860 C   0  0  0  0  0  0  0  0  0  0  0  0
   37.4930   -4.3420    0.0230 C   0  0  0  0  0  0  0  0  0  0  0  0
   36.2240   -5.0850   -0.2360 C   0  0  0  0  0  0  0  0  0  0  0  0
   35.0680   -4.8400    0.5140 C   0  0  0  0  0  0  0  0  0  0  0  0
   33.8570   -5.4190    0.1610 C   0  0  0  0  0  0  0  0  0  0  0  0
   33.7730   -6.2510   -0.9420 C   0  0  0  0  0  0  0  0  0  0  0  0
   34.9020   -6.5060   -1.6940 C   0  0  0  0  0  0  0  0  0  0  0  0
   36.1180   -5.9330   -1.3480 C   0  0  0  0  0  0  0  0  0  0  0  0
  1  2  1  0  0  0  0
  2  3  1  0  0  0  0
  3  4  2  0  0  0  0
  4  5  1  0  0  0  0
  5  6  1  0  0  0  0
  6  7  1  0  0  0  0
  7  8  1  0  0  0  0
  8  9  1  0  0  0  0
  9 10  1  0  0  0  0
 10 11  1  0  0  0  0
 11 12  1  0  0  0  0
 12 13  1  0  0  0  0
 13 14  1  0  0  0  0
 14 15  1  0  0  0  0
 15 16  2  0  0  0  0
 16 17  1  0  0  0  0
 17 18  1  0  0  0  0
 18 19  1  0  0  0  0
 18 20  1  0  0  0  0
 20 21  1  0  0  0  0
 21 22  1  0  0  0  0
 20 23  2  0  0  0  0
 17 24  2  0  0  0  0
 21 24  1  0  0  0  0
 14 25  2  0  0  0  0
 24 25  1  0  0  0  0
 13 26  2  0  0  0  0
 13 27  2  0  0  0  0
 12 28  1  0  0  0  0
  9 29  1  0  0  0  0
 28 29  1  0  0  0  0
  7 30  1  0  0  0  0
  9 30  1  0  0  0  0
  4 31  1  0  0  0  0
 31 32  2  0  0  0  0
  2 33  2  0  0  0  0
 32 33  1  0  0  0  0
 33 34  1  0  0  0  0
 34 35  2  0  0  0  0
 35 36  1  0  0  0  0
 36 37  2  0  0  0  0
 37 38  1  0  0  0  0
 34 39  1  0  0  0  0
 38 39  2  0  0  0  0
 40 41  1  0  0  0  0
 41 42  1  0  0  0  0
 42 43  2  0  0  0  0
 43 44  1  0  0  0  0
 44 45  1  0  0  0  0
 45 46  1  0  0  0  0
 46 47  1  0  0  0  0
 47 48  1  0  0  0  0
 48 49  1  0  0  0  0
 49 50  1  0  0  0  0
 50 51  1  0  0  0  0
 51 52  1  0  0  0  0
 52 53  1  0  0  0  0
 53 54  1  0  0  0  0
 54 55  2  0  0  0  0
 55 56  1  0  0  0  0
 56 57  1  0  0  0  0
 57 58  1  0  0  0  0
 57 59  1  0  0  0  0
 59 60  1  0  0  0  0
 60 61  1  0  0  0  0
 59 62  2  0  0  0  0
 56 63  2  0  0  0  0
 60 63  1  0  0  0  0
 53 64  2  0  0  0  0
 63 64  1  0  0  0  0
 52 65  2  0  0  0  0
 52 66  2  0  0  0  0
 51 67  1  0  0  0  0
 48 68  1  0  0  0  0
 67 68  1  0  0  0  0
 46 69  1  0  0  0  0
 48 69  1  0  0  0  0
 43 70  1  0  0  0  0
 70 71  2  0  0  0  0
 41 72  2  0  0  0  0
 71 72  1  0  0  0  0
 72 73  1  0  0  0  0
 73 74  2  0  0  0  0
 74 75  1  0  0  0  0
 75 76  2  0  0  0  0
 76 77  1  0  0  0  0
 73 78  1  0  0  0  0
 77 78  2  0  0  0  0
M  END
$$$$
