8YR2
  PyMOL3.1          3D                             0

 20 21  0  0  0  0  0  0  0  0999 V2000
  104.6540  118.0740   93.1150 N   0  0  0  0  0  0  0  0  0  0  0  0
  102.7370  112.7570   93.4850 C   0  0  0  0  0  0  0  0  0  0  0  0
  103.2430  114.0030   93.0600 O   0  0  0  0  0  0  0  0  0  0  0  0
  103.3850  111.6740   92.9420 C   0  0  0  0  0  0  0  0  0  0  0  0
  100.9600  113.4970   95.0430 O   0  0  0  0  0  0  0  0  0  0  0  0
  103.0370  110.3840   93.2510 C   0  0  0  0  0  0  0  0  0  0  0  0
  102.0210  110.1500   94.1350 C   0  0  0  0  0  0  0  0  0  0  0  0
  101.3640  111.2180   94.6980 C   0  0  0  0  0  0  0  0  0  0  0  0
  101.7070  112.5130   94.3940 C   0  0  0  0  0  0  0  0  0  0  0  0
   99.8140  113.0120   95.6670 C   0  0  0  0  0  0  0  0  0  0  0  0
  102.4740  115.1370   92.7850 C   0  0  0  0  0  0  0  0  0  0  0  0
  101.4270  114.9590   91.7000 C   0  0  0  0  0  0  0  0  0  0  0  0
  101.8110  114.6250   90.4210 C   0  0  0  0  0  0  0  0  0  0  0  0
  100.8550  114.4830   89.4400 C   0  0  0  0  0  0  0  0  0  0  0  0
   99.5250  114.6900   89.7330 C   0  0  0  0  0  0  0  0  0  0  0  0
   99.1420  115.0360   91.0090 C   0  0  0  0  0  0  0  0  0  0  0  0
  100.0950  115.1790   91.9920 C   0  0  0  0  0  0  0  0  0  0  0  0
  103.4020  116.2080   92.2430 C   0  0  0  0  0  0  0  0  0  0  0  0
  104.4860  116.6420   93.2090 C   0  0  0  0  0  0  0  0  0  0  0  0
  103.4010  118.7210   93.4240 C   0  0  0  0  0  0  0  0  0  0  0  0
  2  3  1  0  0  0  0
  2  4  2  0  0  0  0
  4  6  1  0  0  0  0
  6  7  2  0  0  0  0
  7  8  1  0  0  0  0
  2  9  1  0  0  0  0
  5  9  1  0  0  0  0
  8  9  2  0  0  0  0
  5 10  1  0  0  0  0
  3 11  1  0  0  0  0
 11 12  1  0  0  0  0
 12 13  2  0  0  0  0
 13 14  1  0  0  0  0
 14 15  2  0  0  0  0
 15 16  1  0  0  0  0
 12 17  1  0  0  0  0
 16 17  2  0  0  0  0
 11 18  1  0  0  0  0
  1 19  1  0  0  0  0
 18 19  1  0  0  0  0
  1 20  1  0  0  0  0
M  END
$$$$
