7EKP
  PyMOL3.1          3D                             0

105120  0  0  0  0  0  0  0  0999 V2000
  148.5770  136.3940   91.7930 Cl  0  0  0  0  0  0  0  0  0  0  0  0
  143.6930  140.6180   89.7460 O   0  0  0  0  0  0  0  0  0  0  0  0
  143.1760  139.6030   90.0700 C   0  0  0  0  0  0  0  0  0  0  0  0
  144.0390  138.4370   90.5650 C   0  0  0  0  0  0  0  0  0  0  0  0
  143.5860  137.2130   90.9220 C   0  0  0  0  0  0  0  0  0  0  0  0
  144.5190  136.2170   91.3660 C   0  0  0  0  0  0  0  0  0  0  0  0
  145.8810  136.6790   91.3750 C   0  0  0  0  0  0  0  0  0  0  0  0
  146.8850  135.8320   91.7790 C   0  0  0  0  0  0  0  0  0  0  0  0
  146.5770  134.5280   92.1790 C   0  0  0  0  0  0  0  0  0  0  0  0
  145.2450  134.0800   92.1680 C   0  0  0  0  0  0  0  0  0  0  0  0
  144.2240  134.9380   91.7580 C   0  0  0  0  0  0  0  0  0  0  0  0
  145.7650  138.3950   90.7860 S   0  0  0  0  0  0  0  0  0  0  0  0
  141.7340  139.4720   89.9920 N   0  0  0  0  0  0  0  0  0  0  0  0
  140.9240  140.6140   89.5100 C   0  0  0  0  0  0  0  0  0  0  0  0
  140.5000  140.3770   88.0470 C   0  0  0  0  0  0  0  0  0  0  0  0
  139.7160  140.7470   90.3190 C   0  0  0  0  0  0  0  0  0  0  0  0
  138.9330  141.8320   89.7970 C   0  0  0  0  0  0  0  0  0  0  0  0
  138.5950  141.5880   88.3560 C   0  0  0  0  0  0  0  0  0  0  0  0
  139.1090  140.3880   87.9150 N   0  0  0  0  0  0  0  0  0  0  0  0
  138.5500  139.3320   88.6760 C   0  0  0  0  0  0  0  0  0  0  0  0
  138.9400  139.5160   90.1920 C   0  0  0  0  0  0  0  0  0  0  0  0
  143.8980  100.6500   91.8350 Cl  0  0  0  0  0  0  0  0  0  0  0  0
  146.4140  106.5960   89.7850 O   0  0  0  0  0  0  0  0  0  0  0  0
  145.2890  106.7760   90.1100 C   0  0  0  0  0  0  0  0  0  0  0  0
  144.4460  105.5960   90.6060 C   0  0  0  0  0  0  0  0  0  0  0  0
  143.1420  105.6500   90.9630 C   0  0  0  0  0  0  0  0  0  0  0  0
  142.4810  104.4560   91.4080 C   0  0  0  0  0  0  0  0  0  0  0  0
  143.3400  103.3030   91.4170 C   0  0  0  0  0  0  0  0  0  0  0  0
  142.8430  102.0870   91.8210 C   0  0  0  0  0  0  0  0  0  0  0  0
  141.5080  101.9790   92.2220 C   0  0  0  0  0  0  0  0  0  0  0  0
  140.6720  103.1080   92.2120 C   0  0  0  0  0  0  0  0  0  0  0  0
  141.1740  104.3440   91.8010 C   0  0  0  0  0  0  0  0  0  0  0  0
  144.9370  103.9410   90.8270 S   0  0  0  0  0  0  0  0  0  0  0  0
  144.7210  108.1070   90.0320 N   0  0  0  0  0  0  0  0  0  0  0  0
  145.5580  109.2290   89.5490 C   0  0  0  0  0  0  0  0  0  0  0  0
  145.2010  109.5590   88.0860 C   0  0  0  0  0  0  0  0  0  0  0  0
  145.3140  110.4200   90.3580 C   0  0  0  0  0  0  0  0  0  0  0  0
  146.1050  111.4980   89.8350 C   0  0  0  0  0  0  0  0  0  0  0  0
  145.7670  111.7450   88.3940 C   0  0  0  0  0  0  0  0  0  0  0  0
  144.7830  110.8860   87.9540 N   0  0  0  0  0  0  0  0  0  0  0  0
  143.6070  111.0940   88.7160 C   0  0  0  0  0  0  0  0  0  0  0  0
  143.9030  110.7800   90.2320 C   0  0  0  0  0  0  0  0  0  0  0  0
  108.5130   94.0460   91.8240 Cl  0  0  0  0  0  0  0  0  0  0  0  0
  114.9450   93.4930   89.7730 O   0  0  0  0  0  0  0  0  0  0  0  0
  114.7680   94.6180   90.0980 C   0  0  0  0  0  0  0  0  0  0  0  0
  113.3850   95.0550   90.5940 C   0  0  0  0  0  0  0  0  0  0  0  0
  113.0340   96.3120   90.9520 C   0  0  0  0  0  0  0  0  0  0  0  0
  111.6950   96.5710   91.3970 C   0  0  0  0  0  0  0  0  0  0  0  0
  110.8630   95.3980   91.4060 C   0  0  0  0  0  0  0  0  0  0  0  0
  109.5530   95.4940   91.8110 C   0  0  0  0  0  0  0  0  0  0  0  0
  109.0380   96.7310   92.2120 C   0  0  0  0  0  0  0  0  0  0  0  0
  109.8540   97.8750   92.2020 C   0  0  0  0  0  0  0  0  0  0  0  0
  111.1840   97.7790   91.7910 C   0  0  0  0  0  0  0  0  0  0  0  0
  111.9630   94.0760   90.8150 S   0  0  0  0  0  0  0  0  0  0  0  0
  115.8590   95.5700   90.0200 N   0  0  0  0  0  0  0  0  0  0  0  0
  117.1850   95.1210   89.5360 C   0  0  0  0  0  0  0  0  0  0  0  0
  117.3880   95.5620   88.0730 C   0  0  0  0  0  0  0  0  0  0  0  0
  118.2410   95.7210   90.3450 C   0  0  0  0  0  0  0  0  0  0  0  0
  119.5120   95.3020   89.8220 C   0  0  0  0  0  0  0  0  0  0  0  0
  119.6410   95.6990   88.3810 C   0  0  0  0  0  0  0  0  0  0  0  0
  118.5210   96.3700   87.9410 N   0  0  0  0  0  0  0  0  0  0  0  0
  118.3540   97.5520   88.7030 C   0  0  0  0  0  0  0  0  0  0  0  0
  118.1470   97.1730   90.2190 C   0  0  0  0  0  0  0  0  0  0  0  0
   91.3220  125.6710   91.8080 Cl  0  0  0  0  0  0  0  0  0  0  0  0
   92.7840  119.3820   89.7570 O   0  0  0  0  0  0  0  0  0  0  0  0
   93.8000  119.8980   90.0820 C   0  0  0  0  0  0  0  0  0  0  0  0
   93.7880  121.3490   90.5780 C   0  0  0  0  0  0  0  0  0  0  0  0
   94.8750  122.0710   90.9360 C   0  0  0  0  0  0  0  0  0  0  0  0
   94.7070  123.4250   91.3800 C   0  0  0  0  0  0  0  0  0  0  0  0
   93.3340  123.8540   91.3890 C   0  0  0  0  0  0  0  0  0  0  0  0
   93.0210  125.1290   91.7940 C   0  0  0  0  0  0  0  0  0  0  0  0
   94.0370  126.0020   92.1950 C   0  0  0  0  0  0  0  0  0  0  0  0
   95.3780  125.5800   92.1840 C   0  0  0  0  0  0  0  0  0  0  0  0
   95.6980  124.2850   91.7730 C   0  0  0  0  0  0  0  0  0  0  0  0
   92.4180  122.3980   90.7990 S   0  0  0  0  0  0  0  0  0  0  0  0
   95.0430  119.1550   90.0040 N   0  0  0  0  0  0  0  0  0  0  0  0
   95.0250  117.7560   89.5210 C   0  0  0  0  0  0  0  0  0  0  0  0
   95.5080  117.6990   88.0580 C   0  0  0  0  0  0  0  0  0  0  0  0
   95.9230  116.9370   90.3300 C   0  0  0  0  0  0  0  0  0  0  0  0
   95.9180  115.5990   89.8070 C   0  0  0  0  0  0  0  0  0  0  0  0
   96.3350  115.5980   88.3660 C   0  0  0  0  0  0  0  0  0  0  0  0
   96.6260  116.8710   87.9260 N   0  0  0  0  0  0  0  0  0  0  0  0
   97.6990  117.3950   88.6870 C   0  0  0  0  0  0  0  0  0  0  0  0
   97.2750  117.4750   90.2030 C   0  0  0  0  0  0  0  0  0  0  0  0
  116.0580  151.7850   91.7960 Cl  0  0  0  0  0  0  0  0  0  0  0  0
  110.5290  148.4520   89.7460 O   0  0  0  0  0  0  0  0  0  0  0  0
  111.3330  147.6450   90.0710 C   0  0  0  0  0  0  0  0  0  0  0  0
  112.7090  148.1040   90.5660 C   0  0  0  0  0  0  0  0  0  0  0  0
  113.7320  147.2940   90.9240 C   0  0  0  0  0  0  0  0  0  0  0  0
  114.9680  147.8720   91.3680 C   0  0  0  0  0  0  0  0  0  0  0  0
  114.9520  149.3100   91.3770 C   0  0  0  0  0  0  0  0  0  0  0  0
  116.0680  150.0020   91.7820 C   0  0  0  0  0  0  0  0  0  0  0  0
  117.2120  149.3050   92.1820 C   0  0  0  0  0  0  0  0  0  0  0  0
  117.2250  147.9000   92.1710 C   0  0  0  0  0  0  0  0  0  0  0  0
  116.0930  147.1950   91.7600 C   0  0  0  0  0  0  0  0  0  0  0  0
  113.2840  149.7320   90.7880 S   0  0  0  0  0  0  0  0  0  0  0  0
  111.0110  146.2340   89.9920 N   0  0  0  0  0  0  0  0  0  0  0  0
  109.6740  145.8180   89.5100 C   0  0  0  0  0  0  0  0  0  0  0  0
  109.7680  145.3420   88.0470 C   0  0  0  0  0  0  0  0  0  0  0  0
  109.1730  144.7110   90.3180 C   0  0  0  0  0  0  0  0  0  0  0  0
  107.8990  144.3030   89.7960 C   0  0  0  0  0  0  0  0  0  0  0  0
  108.0260  143.9060   88.3550 C   0  0  0  0  0  0  0  0  0  0  0  0
  109.3270  144.0230   87.9140 N   0  0  0  0  0  0  0  0  0  0  0  0
  110.1570  143.1640   88.6760 C   0  0  0  0  0  0  0  0  0  0  0  0
  110.1020  143.5910   90.1920 C   0  0  0  0  0  0  0  0  0  0  0  0
  2  3  2  0  0  0  0
  3  4  1  0  0  0  0
  3 13  1  0  0  0  0
  4  5  4  0  0  0  0
  4 12  4  0  0  0  0
  5  6  4  0  0  0  0
  6  7  4  0  0  0  0
  6 11  4  0  0  0  0
  7  8  4  0  0  0  0
  7 12  4  0  0  0  0
  1  8  1  0  0  0  0
  8  9  4  0  0  0  0
  9 10  4  0  0  0  0
 10 11  4  0  0  0  0
 13 14  1  0  0  0  0
 14 15  1  0  0  0  0
 14 16  1  0  0  0  0
 15 19  1  0  0  0  0
 16 17  1  0  0  0  0
 16 21  1  0  0  0  0
 17 18  1  0  0  0  0
 18 19  1  0  0  0  0
 19 20  1  0  0  0  0
 20 21  1  0  0  0  0
 23 24  2  0  0  0  0
 24 25  1  0  0  0  0
 24 34  1  0  0  0  0
 25 26  4  0  0  0  0
 25 33  4  0  0  0  0
 26 27  4  0  0  0  0
 27 28  4  0  0  0  0
 27 32  4  0  0  0  0
 28 29  4  0  0  0  0
 28 33  4  0  0  0  0
 22 29  1  0  0  0  0
 29 30  4  0  0  0  0
 30 31  4  0  0  0  0
 31 32  4  0  0  0  0
 34 35  1  0  0  0  0
 35 36  1  0  0  0  0
 35 37  1  0  0  0  0
 36 40  1  0  0  0  0
 37 38  1  0  0  0  0
 37 42  1  0  0  0  0
 38 39  1  0  0  0  0
 39 40  1  0  0  0  0
 40 41  1  0  0  0  0
 41 42  1  0  0  0  0
 44 45  2  0  0  0  0
 45 46  1  0  0  0  0
 45 55  1  0  0  0  0
 46 47  4  0  0  0  0
 46 54  4  0  0  0  0
 47 48  4  0  0  0  0
 48 49  4  0  0  0  0
 48 53  4  0  0  0  0
 49 50  4  0  0  0  0
 49 54  4  0  0  0  0
 43 50  1  0  0  0  0
 50 51  4  0  0  0  0
 51 52  4  0  0  0  0
 52 53  4  0  0  0  0
 55 56  1  0  0  0  0
 56 57  1  0  0  0  0
 56 58  1  0  0  0  0
 57 61  1  0  0  0  0
 58 59  1  0  0  0  0
 58 63  1  0  0  0  0
 59 60  1  0  0  0  0
 60 61  1  0  0  0  0
 61 62  1  0  0  0  0
 62 63  1  0  0  0  0
 65 66  2  0  0  0  0
 66 67  1  0  0  0  0
 66 76  1  0  0  0  0
 67 68  4  0  0  0  0
 67 75  4  0  0  0  0
 68 69  4  0  0  0  0
 69 70  4  0  0  0  0
 69 74  4  0  0  0  0
 70 71  4  0  0  0  0
 70 75  4  0  0  0  0
 64 71  1  0  0  0  0
 71 72  4  0  0  0  0
 72 73  4  0  0  0  0
 73 74  4  0  0  0  0
 76 77  1  0  0  0  0
 77 78  1  0  0  0  0
 77 79  1  0  0  0  0
 78 82  1  0  0  0  0
 79 80  1  0  0  0  0
 79 84  1  0  0  0  0
 80 81  1  0  0  0  0
 81 82  1  0  0  0  0
 82 83  1  0  0  0  0
 83 84  1  0  0  0  0
 86 87  2  0  0  0  0
 87 88  1  0  0  0  0
 87 97  1  0  0  0  0
 88 89  4  0  0  0  0
 88 96  4  0  0  0  0
 89 90  4  0  0  0  0
 90 91  4  0  0  0  0
 90 95  4  0  0  0  0
 91 92  4  0  0  0  0
 91 96  4  0  0  0  0
 85 92  1  0  0  0  0
 92 93  4  0  0  0  0
 93 94  4  0  0  0  0
 94 95  4  0  0  0  0
 97 98  1  0  0  0  0
 98 99  1  0  0  0  0
 98100  1  0  0  0  0
 99103  1  0  0  0  0
100101  1  0  0  0  0
100105  1  0  0  0  0
101102  1  0  0  0  0
102103  1  0  0  0  0
103104  1  0  0  0  0
104105  1  0  0  0  0
M  END
$$$$
