7QPN
  PyMOL3.1          3D                             0

 27 30  0  0  0  0  0  0  0  0999 V2000
   15.2840    1.5630   48.4640 N   0  0  0  0  0  0  0  0  0  0  0  0
   16.3220   -0.7100   45.9520 C   0  0  0  0  0  0  0  0  0  0  0  0
   17.2480    0.4070   46.4500 C   0  0  0  0  0  0  0  0  0  0  0  0
   13.9430    0.4580   49.9850 N   0  0  0  0  0  0  0  0  0  0  0  0
   18.6820    0.0860   46.0620 C   0  0  0  0  0  0  0  0  0  0  0  0
   14.0080   -2.7190   48.1210 N   0  0  0  0  0  0  0  0  0  0  0  0
   16.8400    1.7720   45.9240 C   0  0  0  0  0  0  0  0  0  0  0  0
   14.8510    2.7030   52.0480 N   0  0  0  0  0  0  0  0  0  0  0  0
   16.3920    2.8100   46.7510 C   0  0  0  0  0  0  0  0  0  0  0  0
   16.3860    3.6330   48.9720 N   0  0  0  0  0  0  0  0  0  0  0  0
   16.1450    4.0570   46.1800 C   0  0  0  0  0  0  0  0  0  0  0  0
   16.2940    4.2630   44.8240 C   0  0  0  0  0  0  0  0  0  0  0  0
   16.6810    3.2370   44.0160 C   0  0  0  0  0  0  0  0  0  0  0  0
   16.9580    1.9990   44.5570 C   0  0  0  0  0  0  0  0  0  0  0  0
   16.0430    2.6330   48.1450 C   0  0  0  0  0  0  0  0  0  0  0  0
   14.7700    1.4870   49.7160 C   0  0  0  0  0  0  0  0  0  0  0  0
   13.5580   -0.5310   48.9900 C   0  0  0  0  0  0  0  0  0  0  0  0
   14.4160   -1.7570   48.9630 C   0  0  0  0  0  0  0  0  0  0  0  0
   15.5720   -1.8610   49.7030 C   0  0  0  0  0  0  0  0  0  0  0  0
   16.3490   -2.9990   49.5620 C   0  0  0  0  0  0  0  0  0  0  0  0
   15.9510   -3.9940   48.7070 C   0  0  0  0  0  0  0  0  0  0  0  0
   14.7730   -3.8140   48.0100 C   0  0  0  0  0  0  0  0  0  0  0  0
   15.0870    2.5040   50.6990 C   0  0  0  0  0  0  0  0  0  0  0  0
   13.9690    1.9520   52.9330 C   0  0  0  0  0  0  0  0  0  0  0  0
   15.5500    3.8170   52.4450 C   0  0  0  0  0  0  0  0  0  0  0  0
   16.2110    4.3640   51.4000 C   0  0  0  0  0  0  0  0  0  0  0  0
   15.9210    3.5370   50.2360 C   0  0  0  0  0  0  0  0  0  0  0  0
  2  3  1  0  0  0  0
  3  5  1  0  0  0  0
  3  7  1  0  0  0  0
  7  9  2  0  0  0  0
  9 11  1  0  0  0  0
 11 12  2  0  0  0  0
 12 13  1  0  0  0  0
  7 14  1  0  0  0  0
 13 14  2  0  0  0  0
  1 15  2  0  0  0  0
  9 15  1  0  0  0  0
 10 15  1  0  0  0  0
  1 16  1  0  0  0  0
  4 16  1  0  0  0  0
  4 17  1  0  0  0  0
  6 18  1  0  0  0  0
 17 18  1  0  0  0  0
 18 19  2  0  0  0  0
 19 20  1  0  0  0  0
 20 21  2  0  0  0  0
  6 22  2  0  0  0  0
 21 22  1  0  0  0  0
  8 23  1  0  0  0  0
 16 23  2  0  0  0  0
  8 24  1  0  0  0  0
  8 25  1  0  0  0  0
 25 26  2  0  0  0  0
 10 27  2  0  0  0  0
 23 27  1  0  0  0  0
 26 27  1  0  0  0  0
M  END
$$$$
