8OO5
  PyMOL3.1          3D                             0

 36 40  0  0  0  0  0  0  0  0999 V2000
   -9.3510  -27.9670    5.3900 Cl  0  0  0  0  0  0  0  0  0  0  0  0
  -19.0800  -23.7170    6.1170 C   0  0  0  0  0  0  0  0  0  0  0  0
  -16.8980  -22.8140    6.9110 C   0  0  0  0  0  0  0  0  0  0  0  0
  -16.5620  -24.1430    7.2230 C   0  0  0  0  0  0  0  0  0  0  0  0
  -17.4380  -25.2380    7.0810 C   0  0  0  0  0  0  0  0  0  0  0  0
  -18.6930  -25.0130    6.5060 C   0  0  0  0  0  0  0  0  0  0  0  0
  -16.9470  -26.5040    7.4320 C   0  0  0  0  0  0  0  0  0  0  0  0
  -15.7230  -26.6260    8.0290 N   0  0  0  0  0  0  0  0  0  0  0  0
  -17.5900  -27.6850    7.3060 N   0  0  0  0  0  0  0  0  0  0  0  0
  -15.3450  -24.3380    7.7600 N   0  0  0  0  0  0  0  0  0  0  0  0
  -14.9550  -25.5180    8.2290 C   0  0  0  0  0  0  0  0  0  0  0  0
  -13.5910  -25.6360    8.9140 C   0  0  0  0  0  0  0  0  0  0  0  0
  -12.5610  -26.2390    7.9980 C   0  0  0  0  0  0  0  0  0  0  0  0
  -11.5830  -27.0190    8.6100 C   0  0  0  0  0  0  0  0  0  0  0  0
  -10.5150  -27.5510    7.8310 C   0  0  0  0  0  0  0  0  0  0  0  0
  -10.5590  -27.2800    6.4560 C   0  0  0  0  0  0  0  0  0  0  0  0
  -11.5360  -26.4460    5.8630 C   0  0  0  0  0  0  0  0  0  0  0  0
  -12.5030  -25.9210    6.6570 C   0  0  0  0  0  0  0  0  0  0  0  0
  -16.9160  -28.9360    7.5900 C   0  0  0  0  0  0  0  0  0  0  0  0
  -16.9240  -29.1620    9.1500 C   0  0  0  0  0  0  0  0  0  0  0  0
  -18.2180  -28.7670    9.7030 N   0  0  0  0  0  0  0  0  0  0  0  0
  -18.1740  -22.6600    6.2940 C   0  0  0  0  0  0  0  0  0  0  0  0
  -18.6110  -21.4020    5.8820 N   0  0  0  0  0  0  0  0  0  0  0  0
  -13.7440  -26.6510   10.0900 C   0  0  0  0  0  0  0  0  0  0  0  0
  -14.8980  -26.1770   11.0840 C   0  0  0  0  0  0  0  0  0  0  0  0
  -14.5620  -24.7740   11.6050 C   0  0  0  0  0  0  0  0  0  0  0  0
  -13.9070  -23.7210   10.6810 C   0  0  0  0  0  0  0  0  0  0  0  0
  -13.1130  -24.2140    9.4430 C   0  0  0  0  0  0  0  0  0  0  0  0
  -19.9700  -20.9860    6.3330 C   0  0  0  0  0  0  0  0  0  0  0  0
  -20.5380  -19.9210    5.3570 C   0  0  0  0  0  0  0  0  0  0  0  0
  -19.5030  -18.8770    5.3490 N   0  0  0  0  0  0  0  0  0  0  0  0
  -18.0660  -19.1690    5.0480 C   0  0  0  0  0  0  0  0  0  0  0  0
  -17.5520  -20.3290    5.8650 C   0  0  0  0  0  0  0  0  0  0  0  0
  -19.8330  -17.5560    5.6950 C   0  0  0  0  0  0  0  0  0  0  0  0
  -20.9720  -17.2660    5.9450 O   0  0  0  0  0  0  0  0  0  0  0  0
  -18.8250  -16.3760    5.7330 C   0  0  0  0  0  0  0  0  0  0  0  0
  3  4  2  0  0  0  0
  4  5  1  0  0  0  0
  2  6  1  0  0  0  0
  5  6  2  0  0  0  0
  5  7  1  0  0  0  0
  7  8  2  0  0  0  0
  7  9  1  0  0  0  0
  4 10  1  0  0  0  0
  8 11  1  0  0  0  0
 10 11  2  0  0  0  0
 11 12  1  0  0  0  0
 12 13  1  0  0  0  0
 13 14  1  0  0  0  0
 14 15  2  0  0  0  0
  1 16  1  0  0  0  0
 15 16  1  0  0  0  0
 16 17  2  0  0  0  0
 13 18  2  0  0  0  0
 17 18  1  0  0  0  0
  9 19  1  0  0  0  0
 19 20  1  0  0  0  0
 20 21  1  0  0  0  0
  2 22  2  0  0  0  0
  3 22  1  0  0  0  0
 22 23  1  0  0  0  0
 12 24  1  0  0  0  0
 24 25  1  0  0  0  0
 25 26  1  0  0  0  0
 26 27  1  0  0  0  0
 12 28  1  0  0  0  0
 27 28  1  0  0  0  0
 23 29  1  0  0  0  0
 29 30  1  0  0  0  0
 30 31  1  0  0  0  0
 31 32  1  0  0  0  0
 23 33  1  0  0  0  0
 32 33  1  0  0  0  0
 31 34  1  0  0  0  0
 34 35  2  0  0  0  0
 34 36  1  0  0  0  0
M  END
$$$$
