6WFN
  PyMOL3.1          3D                             0

 62 66  0  0  0  0  0  0  0  0999 V2000
    1.6670   -5.2240    7.8450 C   0  0  0  0  0  0  0  0  0  0  0  0
    2.0470   -5.8960    6.6020 N   0  0  0  0  0  0  0  0  0  0  0  0
   -2.8580   -1.4180    8.4950 O   0  0  0  0  0  0  0  0  0  0  0  0
    0.6820   -3.1030    6.3080 S   0  0  0  0  0  0  0  0  0  0  0  0
    3.4770   -6.1370    6.5310 C   0  0  0  0  0  0  0  0  0  0  0  0
   -0.3460   -3.9460    8.4890 N   0  0  0  0  0  0  0  0  0  0  0  0
    6.0980   -7.4600    7.4230 O   0  0  0  0  0  0  0  0  0  0  0  0
    3.9500   -5.8420    7.9410 C   0  0  0  0  0  0  0  0  0  0  0  0
   -2.6510   -3.2220    9.8690 N   0  0  0  0  0  0  0  0  0  0  0  0
   10.0400   -8.3500    7.1350 O   0  0  0  0  0  0  0  0  0  0  0  0
    3.0110   -4.7410    8.3810 C   0  0  0  0  0  0  0  0  0  0  0  0
    5.3430   -5.4150    8.0200 N   0  0  0  0  0  0  0  0  0  0  0  0
    8.2200   -5.1930    4.4140 O   0  0  0  0  0  0  0  0  0  0  0  0
    0.6600   -4.1490    7.6690 C   0  0  0  0  0  0  0  0  0  0  0  0
    8.9720   -6.8670    5.7510 N   0  0  0  0  0  0  0  0  0  0  0  0
   -0.0220   -6.7770    6.3410 O   0  0  0  0  0  0  0  0  0  0  0  0
   -1.1180   -2.8920    8.0690 C   0  0  0  0  0  0  0  0  0  0  0  0
    8.6940   -6.8030    8.0720 N   0  0  0  0  0  0  0  0  0  0  0  0
   -0.7130   -2.2930    6.8940 C   0  0  0  0  0  0  0  0  0  0  0  0
    2.9680   -8.1690   -0.1340 N   0  0  0  0  0  0  0  0  0  0  0  0
   -2.2680   -2.4390    8.8300 C   0  0  0  0  0  0  0  0  0  0  0  0
    3.4260   -9.0540   -1.0650 N   0  0  0  0  0  0  0  0  0  0  0  0
   -3.9430   -3.0230   10.5120 C   0  0  0  0  0  0  0  0  0  0  0  0
    3.5820  -10.2730   -0.5190 N   0  0  0  0  0  0  0  0  0  0  0  0
    6.3410   -6.3090    7.7710 C   0  0  0  0  0  0  0  0  0  0  0  0
    3.2010  -10.2060    0.7870 N   0  0  0  0  0  0  0  0  0  0  0  0
    7.7330   -5.7260    7.9530 C   0  0  0  0  0  0  0  0  0  0  0  0
    8.1240   -4.8480    6.7850 C   0  0  0  0  0  0  0  0  0  0  0  0
    8.4300   -5.6360    5.5360 C   0  0  0  0  0  0  0  0  0  0  0  0
    9.2890   -7.3860    6.9900 C   0  0  0  0  0  0  0  0  0  0  0  0
    9.3810   -7.6600    4.5720 C   0  0  0  0  0  0  0  0  0  0  0  0
    1.1310   -6.6700    5.9350 C   0  0  0  0  0  0  0  0  0  0  0  0
    1.5690   -7.2550    4.6490 C   0  0  0  0  0  0  0  0  0  0  0  0
    2.0580   -6.4350    3.6720 C   0  0  0  0  0  0  0  0  0  0  0  0
    2.4710   -6.9770    2.4670 C   0  0  0  0  0  0  0  0  0  0  0  0
    2.4040   -8.3380    2.2610 C   0  0  0  0  0  0  0  0  0  0  0  0
    1.9270   -9.1500    3.2480 C   0  0  0  0  0  0  0  0  0  0  0  0
    1.4930   -8.6120    4.4490 C   0  0  0  0  0  0  0  0  0  0  0  0
    2.8470   -8.9210    0.9620 C   0  0  0  0  0  0  0  0  0  0  0  0
    1.2670   -5.9880    8.5150 H   0  0  0  0  0  0  0  0  0  0  0  0
    3.9180   -5.4600    5.7970 H   0  0  0  0  0  0  0  0  0  0  0  0
    3.6800   -7.1780    6.2650 H   0  0  0  0  0  0  0  0  0  0  0  0
    3.8170   -6.7180    8.5810 H   0  0  0  0  0  0  0  0  0  0  0  0
    3.2870   -3.7910    7.9180 H   0  0  0  0  0  0  0  0  0  0  0  0
    3.0090   -4.6190    9.4630 H   0  0  0  0  0  0  0  0  0  0  0  0
   -1.1630   -1.4590    6.3760 H   0  0  0  0  0  0  0  0  0  0  0  0
   -2.0080   -3.9090   10.2500 H   0  0  0  0  0  0  0  0  0  0  0  0
   -3.9710   -3.5810   11.4510 H   0  0  0  0  0  0  0  0  0  0  0  0
   -4.7250   -3.3860    9.8400 H   0  0  0  0  0  0  0  0  0  0  0  0
   -4.0920   -1.9600   10.7150 H   0  0  0  0  0  0  0  0  0  0  0  0
    5.5600   -4.4340    8.1630 H   0  0  0  0  0  0  0  0  0  0  0  0
    7.7270   -5.1610    8.8800 H   0  0  0  0  0  0  0  0  0  0  0  0
    9.0260   -4.2860    7.0340 H   0  0  0  0  0  0  0  0  0  0  0  0
    7.3320   -4.1300    6.5800 H   0  0  0  0  0  0  0  0  0  0  0  0
    8.9430   -7.1300    9.0000 H   0  0  0  0  0  0  0  0  0  0  0  0
   10.4480   -7.5040    4.4000 H   0  0  0  0  0  0  0  0  0  0  0  0
    8.8160   -7.3670    3.6840 H   0  0  0  0  0  0  0  0  0  0  0  0
    9.1900   -8.7190    4.7660 H   0  0  0  0  0  0  0  0  0  0  0  0
    2.1160   -5.3640    3.8370 H   0  0  0  0  0  0  0  0  0  0  0  0
    2.8530   -6.3190    1.6950 H   0  0  0  0  0  0  0  0  0  0  0  0
    1.8600  -10.2210    3.0930 H   0  0  0  0  0  0  0  0  0  0  0  0
    1.1120   -9.2600    5.2310 H   0  0  0  0  0  0  0  0  0  0  0  0
  1  2  1  0  0  0  0
  2  5  1  0  0  0  0
  5  8  1  0  0  0  0
  1 11  1  0  0  0  0
  8 11  1  0  0  0  0
  8 12  1  0  0  0  0
  1 14  1  0  0  0  0
  4 14  1  0  0  0  0
  6 14  2  0  0  0  0
  6 17  1  0  0  0  0
  4 19  1  0  0  0  0
 17 19  2  0  0  0  0
  3 21  2  0  0  0  0
  9 21  1  0  0  0  0
 17 21  1  0  0  0  0
 20 22  1  0  0  0  0
  9 23  1  0  0  0  0
 22 24  2  0  0  0  0
  7 25  2  0  0  0  0
 12 25  1  0  0  0  0
 24 26  1  0  0  0  0
 18 27  1  0  0  0  0
 25 27  1  0  0  0  0
 27 28  1  0  0  0  0
 13 29  2  0  0  0  0
 15 29  1  0  0  0  0
 28 29  1  0  0  0  0
 10 30  2  0  0  0  0
 15 30  1  0  0  0  0
 18 30  1  0  0  0  0
 15 31  1  0  0  0  0
  2 32  1  0  0  0  0
 16 32  2  0  0  0  0
 32 33  1  0  0  0  0
 33 34  2  0  0  0  0
 34 35  1  0  0  0  0
 35 36  2  0  0  0  0
 36 37  1  0  0  0  0
 33 38  1  0  0  0  0
 37 38  2  0  0  0  0
 20 39  2  0  0  0  0
 26 39  1  0  0  0  0
 36 39  1  0  0  0  0
  1 40  1  0  0  0  0
  5 41  1  0  0  0  0
  5 42  1  0  0  0  0
  8 43  1  0  0  0  0
 11 44  1  0  0  0  0
 11 45  1  0  0  0  0
 19 46  1  0  0  0  0
  9 47  1  0  0  0  0
 23 48  1  0  0  0  0
 23 49  1  0  0  0  0
 23 50  1  0  0  0  0
 12 51  1  0  0  0  0
 27 52  1  0  0  0  0
 28 53  1  0  0  0  0
 28 54  1  0  0  0  0
 18 55  1  0  0  0  0
 31 56  1  0  0  0  0
 31 57  1  0  0  0  0
 31 58  1  0  0  0  0
 34 59  1  0  0  0  0
 35 60  1  0  0  0  0
 37 61  1  0  0  0  0
 38 62  1  0  0  0  0
M  END
$$$$
