7WKW
  PyMOL3.1          3D                             0

 68 72  0  0  0  0  0  0  0  0999 V2000
  109.5660   92.5410  101.2000 C   0  0  0  0  0  0  0  0  0  0  0  0
  109.9400   91.7070  100.1560 C   0  0  0  0  0  0  0  0  0  0  0  0
  109.3650   90.4510  100.0260 C   0  0  0  0  0  0  0  0  0  0  0  0
  108.4010   90.0160  100.9520 C   0  0  0  0  0  0  0  0  0  0  0  0
  108.0340   90.8450  101.9850 C   0  0  0  0  0  0  0  0  0  0  0  0
  108.6180   92.1160  102.1150 C   0  0  0  0  0  0  0  0  0  0  0  0
  107.0730   90.4240  102.9190 C   0  0  0  0  0  0  0  0  0  0  0  0
  106.4960   89.1710  102.7970 C   0  0  0  0  0  0  0  0  0  0  0  0
  106.8700   88.3310  101.7540 C   0  0  0  0  0  0  0  0  0  0  0  0
  107.8150   88.7410  100.8210 C   0  0  0  0  0  0  0  0  0  0  0  0
  108.2300   87.8760   99.7210 N   0  0  0  0  0  0  0  0  0  0  0  0
  107.4840   86.6950   99.3020 C   0  0  0  0  0  0  0  0  0  0  0  0
  106.4770   86.3840   99.8340 O   0  0  0  0  0  0  0  0  0  0  0  0
  107.9910   85.8290   98.1440 C   0  0  0  0  0  0  0  0  0  0  0  0
  107.0830   85.3850   97.1990 C   0  0  0  0  0  0  0  0  0  0  0  0
  107.5050   84.5970   96.1420 C   0  0  0  0  0  0  0  0  0  0  0  0
  108.8390   84.2480   96.0260 C   0  0  0  0  0  0  0  0  0  0  0  0
  109.7500   84.6860   96.9700 C   0  0  0  0  0  0  0  0  0  0  0  0
  109.3310   85.4720   98.0300 C   0  0  0  0  0  0  0  0  0  0  0  0
  110.3660   85.9380   99.0500 C   0  0  0  0  0  0  0  0  0  0  0  0
  110.5360   85.2990  100.1190 O   0  0  0  0  0  0  0  0  0  0  0  0
  111.0560   86.9630   98.8180 O   0  0  0  0  0  0  0  0  0  0  0  0
  109.9510   93.3840  101.2840 H   0  0  0  0  0  0  0  0  0  0  0  0
  110.5770   91.9910   99.5400 H   0  0  0  0  0  0  0  0  0  0  0  0
  109.6200   89.8950   99.3250 H   0  0  0  0  0  0  0  0  0  0  0  0
  108.3640   92.6740  102.8140 H   0  0  0  0  0  0  0  0  0  0  0  0
  106.8250   90.9860  103.6170 H   0  0  0  0  0  0  0  0  0  0  0  0
  105.8590   88.8900  103.4140 H   0  0  0  0  0  0  0  0  0  0  0  0
  106.4760   87.4930  101.6800 H   0  0  0  0  0  0  0  0  0  0  0  0
  108.9590   88.0620   99.3060 H   0  0  0  0  0  0  0  0  0  0  0  0
  106.1860   85.6190   97.2730 H   0  0  0  0  0  0  0  0  0  0  0  0
  106.8910   84.3040   95.5080 H   0  0  0  0  0  0  0  0  0  0  0  0
  109.1220   83.7180   95.3150 H   0  0  0  0  0  0  0  0  0  0  0  0
  110.6470   84.4510   96.8930 H   0  0  0  0  0  0  0  0  0  0  0  0
   94.6580  111.6880  101.1890 C   0  0  0  0  0  0  0  0  0  0  0  0
   94.2850  112.5240  100.1450 C   0  0  0  0  0  0  0  0  0  0  0  0
   94.8610  113.7800  100.0170 C   0  0  0  0  0  0  0  0  0  0  0  0
   95.8240  114.2130  100.9450 C   0  0  0  0  0  0  0  0  0  0  0  0
   96.1900  113.3830  101.9770 C   0  0  0  0  0  0  0  0  0  0  0  0
   95.6060  112.1120  102.1050 C   0  0  0  0  0  0  0  0  0  0  0  0
   97.1500  113.8030  102.9130 C   0  0  0  0  0  0  0  0  0  0  0  0
   97.7280  115.0560  102.7930 C   0  0  0  0  0  0  0  0  0  0  0  0
   97.3560  115.8960  101.7510 C   0  0  0  0  0  0  0  0  0  0  0  0
   96.4110  115.4880  100.8160 C   0  0  0  0  0  0  0  0  0  0  0  0
   95.9980  116.3560   99.7180 N   0  0  0  0  0  0  0  0  0  0  0  0
   96.7470  117.5350   99.3000 C   0  0  0  0  0  0  0  0  0  0  0  0
   97.7560  117.8420   99.8320 O   0  0  0  0  0  0  0  0  0  0  0  0
   96.2420  118.4040   98.1440 C   0  0  0  0  0  0  0  0  0  0  0  0
   97.1500  118.8480   97.1990 C   0  0  0  0  0  0  0  0  0  0  0  0
   96.7290  119.6380   96.1430 C   0  0  0  0  0  0  0  0  0  0  0  0
   95.3960  119.9910   96.0290 C   0  0  0  0  0  0  0  0  0  0  0  0
   94.4850  119.5530   96.9730 C   0  0  0  0  0  0  0  0  0  0  0  0
   94.9030  118.7650   98.0320 C   0  0  0  0  0  0  0  0  0  0  0  0
   93.8670  118.2990   99.0520 C   0  0  0  0  0  0  0  0  0  0  0  0
   93.7000  118.9370  100.1220 O   0  0  0  0  0  0  0  0  0  0  0  0
   93.1740  117.2770   98.8180 O   0  0  0  0  0  0  0  0  0  0  0  0
   94.2740  110.8450  101.2720 H   0  0  0  0  0  0  0  0  0  0  0  0
   93.6490  112.2400   99.5290 H   0  0  0  0  0  0  0  0  0  0  0  0
   94.6060  114.3370   99.3170 H   0  0  0  0  0  0  0  0  0  0  0  0
   95.8590  111.5530  102.8040 H   0  0  0  0  0  0  0  0  0  0  0  0
   97.3980  113.2400  103.6100 H   0  0  0  0  0  0  0  0  0  0  0  0
   98.3640  115.3350  103.4110 H   0  0  0  0  0  0  0  0  0  0  0  0
   97.7490  116.7340  101.6780 H   0  0  0  0  0  0  0  0  0  0  0  0
   95.2680  116.1730   99.3030 H   0  0  0  0  0  0  0  0  0  0  0  0
   98.0470  118.6120   97.2720 H   0  0  0  0  0  0  0  0  0  0  0  0
   97.3430  119.9310   95.5100 H   0  0  0  0  0  0  0  0  0  0  0  0
   95.1140  120.5220   95.3200 H   0  0  0  0  0  0  0  0  0  0  0  0
   93.5890  119.7910   96.8980 H   0  0  0  0  0  0  0  0  0  0  0  0
  1  2  2  0  0  0  0
  2  3  1  0  0  0  0
  3  4  2  0  0  0  0
  4  5  1  0  0  0  0
  1  6  1  0  0  0  0
  5  6  2  0  0  0  0
  5  7  1  0  0  0  0
  7  8  2  0  0  0  0
  8  9  1  0  0  0  0
  4 10  1  0  0  0  0
  9 10  2  0  0  0  0
 10 11  1  0  0  0  0
 11 12  1  0  0  0  0
 12 13  2  0  0  0  0
 12 14  1  0  0  0  0
 14 15  1  0  0  0  0
 15 16  2  0  0  0  0
 16 17  1  0  0  0  0
 17 18  2  0  0  0  0
 14 19  2  0  0  0  0
 18 19  1  0  0  0  0
 19 20  1  0  0  0  0
 20 21  1  0  0  0  0
 20 22  2  0  0  0  0
  1 23  1  0  0  0  0
  2 24  1  0  0  0  0
  3 25  1  0  0  0  0
  6 26  1  0  0  0  0
  7 27  1  0  0  0  0
  8 28  1  0  0  0  0
  9 29  1  0  0  0  0
 11 30  1  0  0  0  0
 15 31  1  0  0  0  0
 16 32  1  0  0  0  0
 17 33  1  0  0  0  0
 18 34  1  0  0  0  0
 35 36  2  0  0  0  0
 36 37  1  0  0  0  0
 37 38  2  0  0  0  0
 38 39  1  0  0  0  0
 35 40  1  0  0  0  0
 39 40  2  0  0  0  0
 39 41  1  0  0  0  0
 41 42  2  0  0  0  0
 42 43  1  0  0  0  0
 38 44  1  0  0  0  0
 43 44  2  0  0  0  0
 44 45  1  0  0  0  0
 45 46  1  0  0  0  0
 46 47  2  0  0  0  0
 46 48  1  0  0  0  0
 48 49  1  0  0  0  0
 49 50  2  0  0  0  0
 50 51  1  0  0  0  0
 51 52  2  0  0  0  0
 48 53  2  0  0  0  0
 52 53  1  0  0  0  0
 53 54  1  0  0  0  0
 54 55  1  0  0  0  0
 54 56  2  0  0  0  0
 35 57  1  0  0  0  0
 36 58  1  0  0  0  0
 37 59  1  0  0  0  0
 40 60  1  0  0  0  0
 41 61  1  0  0  0  0
 42 62  1  0  0  0  0
 43 63  1  0  0  0  0
 45 64  1  0  0  0  0
 49 65  1  0  0  0  0
 50 66  1  0  0  0  0
 51 67  1  0  0  0  0
 52 68  1  0  0  0  0
M  END
$$$$
