7W41
  PyMOL3.1          3D                             0

 43 47  0  0  0  0  0  0  0  0999 V2000
  -21.2630    6.5270   -9.8440 C   0  0  0  0  0  0  0  0  0  0  0  0
  -22.2570    5.9600  -10.8750 C   0  0  0  0  0  0  0  0  0  0  0  0
  -22.3690    6.9400  -12.0660 C   0  0  0  0  0  0  0  0  0  0  0  0
  -20.9480    7.1380  -12.7470 C   0  0  0  0  0  0  0  0  0  0  0  0
  -20.3400    6.2230  -13.5140 C   0  0  0  0  0  0  0  0  0  0  0  0
  -19.0360    7.9480  -13.3780 C   0  0  0  0  0  0  0  0  0  0  0  0
  -18.0320    8.8420  -13.4820 C   0  0  0  0  0  0  0  0  0  0  0  0
  -18.0890   10.0820  -12.8430 C   0  0  0  0  0  0  0  0  0  0  0  0
  -19.2280   10.3510  -12.0860 C   0  0  0  0  0  0  0  0  0  0  0  0
  -20.2510    9.3910  -12.0160 C   0  0  0  0  0  0  0  0  0  0  0  0
  -20.1430    8.2140  -12.6570 C   0  0  0  0  0  0  0  0  0  0  0  0
  -23.5510    5.5190  -10.1640 C   0  0  0  0  0  0  0  0  0  0  0  0
  -25.6160    5.9100   -8.9960 C   0  0  0  0  0  0  0  0  0  0  0  0
  -25.6130    6.1540   -7.4990 C   0  0  0  0  0  0  0  0  0  0  0  0
  -27.0770    5.8640   -7.1060 C   0  0  0  0  0  0  0  0  0  0  0  0
  -27.0760    5.2370   -5.6840 C   0  0  0  0  0  0  0  0  0  0  0  0
  -26.4780    3.8330   -5.6620 C   0  0  0  0  0  0  0  0  0  0  0  0
  -25.3000    3.7430   -6.6020 C   0  0  0  0  0  0  0  0  0  0  0  0
  -24.6510    5.1140   -6.7860 C   0  0  0  0  0  0  0  0  0  0  0  0
  -25.1050    7.4500   -7.2100 C   0  0  0  0  0  0  0  0  0  0  0  0
  -23.2290    8.7800   -6.5310 C   0  0  0  0  0  0  0  0  0  0  0  0
  -23.9660    9.9580   -6.6470 C   0  0  0  0  0  0  0  0  0  0  0  0
  -19.1600    6.7170  -13.8910 N   0  0  0  0  0  0  0  0  0  0  0  0
  -24.4280    6.4630   -9.7270 N   0  0  0  0  0  0  0  0  0  0  0  0
  -23.8150    7.5520   -6.8220 N   0  0  0  0  0  0  0  0  0  0  0  0
  -23.7080    4.2890   -9.9140 O   0  0  0  0  0  0  0  0  0  0  0  0
  -25.3070    9.8600   -7.0500 C   0  0  0  0  0  0  0  0  0  0  0  0
  -25.8710    8.6130   -7.3330 C   0  0  0  0  0  0  0  0  0  0  0  0
  -24.1680   12.3450   -6.1430 C   0  0  0  0  0  0  0  0  0  0  0  0
  -22.4680    3.9760  -12.2300 C   0  0  0  0  0  0  0  0  0  0  0  0
  -22.4360    1.9670  -13.3290 C   0  0  0  0  0  0  0  0  0  0  0  0
  -23.3720    2.3100  -14.3060 C   0  0  0  0  0  0  0  0  0  0  0  0
  -23.9870    1.3020  -15.0120 C   0  0  0  0  0  0  0  0  0  0  0  0
  -23.6610   -0.0070  -14.7320 C   0  0  0  0  0  0  0  0  0  0  0  0
  -22.7520   -0.3430  -13.7480 C   0  0  0  0  0  0  0  0  0  0  0  0
  -22.1330    0.6530  -13.0340 C   0  0  0  0  0  0  0  0  0  0  0  0
  -21.7430    4.7030  -11.3680 N   0  0  0  0  0  0  0  0  0  0  0  0
  -21.8350    2.8400  -12.5760 N   0  0  0  0  0  0  0  0  0  0  0  0
  -24.2450   -0.9710  -15.3810 N   0  0  0  0  0  0  0  0  0  0  0  0
  -23.3420   11.1650   -6.3620 O   0  0  0  0  0  0  0  0  0  0  0  0
  -23.5540    4.3650  -12.7050 O   0  0  0  0  0  0  0  0  0  0  0  0
  -25.1280   -1.7610  -14.5810 O   0  0  0  0  0  0  0  0  0  0  0  0
  -23.9060   -1.1830  -17.0150 O   0  0  0  0  0  0  0  0  0  0  0  0
  1  2  1  0  0  0  0
  2  3  1  0  0  0  0
  3  4  1  0  0  0  0
  4  5  2  0  0  0  0
  6  7  2  0  0  0  0
  7  8  1  0  0  0  0
  8  9  2  0  0  0  0
  9 10  1  0  0  0  0
  4 11  1  0  0  0  0
  6 11  1  0  0  0  0
 10 11  2  0  0  0  0
  2 12  1  0  0  0  0
 13 14  1  0  0  0  0
 14 15  1  0  0  0  0
 15 16  1  0  0  0  0
 16 17  1  0  0  0  0
 17 18  1  0  0  0  0
 14 19  1  0  0  0  0
 18 19  1  0  0  0  0
 14 20  1  0  0  0  0
 21 22  2  0  0  0  0
  5 23  1  0  0  0  0
  6 23  1  0  0  0  0
 12 24  1  0  0  0  0
 13 24  1  0  0  0  0
 20 25  2  0  0  0  0
 21 25  1  0  0  0  0
 12 26  2  0  0  0  0
 22 27  1  0  0  0  0
 20 28  1  0  0  0  0
 27 28  2  0  0  0  0
 31 32  2  0  0  0  0
 32 33  1  0  0  0  0
 33 34  2  0  0  0  0
 34 35  1  0  0  0  0
 31 36  1  0  0  0  0
 35 36  2  0  0  0  0
  2 37  1  0  0  0  0
 30 37  1  0  0  0  0
 30 38  1  0  0  0  0
 31 38  1  0  0  0  0
 34 39  1  0  0  0  0
 22 40  1  0  0  0  0
 29 40  1  0  0  0  0
 30 41  2  0  0  0  0
 39 42  1  0  0  0  0
 39 43  2  0  0  0  0
M  END
$$$$
