7P1L
  PyMOL3.1          3D                             0

 29 32  0  0  0  0  0  0  0  0999 V2000
   -0.8021   13.0968   -4.0716 N   0  0  0  0  0  0  0  0  0  0  0  0
    0.8483   11.4060   -3.8737 C   0  0  0  0  0  0  0  0  0  0  0  0
   -1.6041   18.7091  -11.5092 O   0  0  0  0  0  0  0  0  0  0  0  0
   -0.4426   11.8595   -3.7244 C   0  0  0  0  0  0  0  0  0  0  0  0
   -0.2310   15.0201   -5.1729 N   0  0  0  0  0  0  0  0  0  0  0  0
    0.1749   13.8578   -4.5978 C   0  0  0  0  0  0  0  0  0  0  0  0
    0.0143   19.3948   -9.2424 N   0  0  0  0  0  0  0  0  0  0  0  0
    0.4800   16.0782   -5.8047 C   0  0  0  0  0  0  0  0  0  0  0  0
    1.4632   13.5055   -4.7725 N   0  0  0  0  0  0  0  0  0  0  0  0
    1.8677   16.1755   -5.8018 C   0  0  0  0  0  0  0  0  0  0  0  0
    3.0989   11.8791   -4.5443 N   0  0  0  0  0  0  0  0  0  0  0  0
    2.4815   17.2344   -6.4538 C   0  0  0  0  0  0  0  0  0  0  0  0
    6.5321   16.7559   -5.0522 N   0  0  0  0  0  0  0  0  0  0  0  0
    1.7170   18.1836   -7.1182 C   0  0  0  0  0  0  0  0  0  0  0  0
    5.4816   15.0835   -6.0392 N   0  0  0  0  0  0  0  0  0  0  0  0
    0.3318   18.1035   -7.1245 C   0  0  0  0  0  0  0  0  0  0  0  0
   -0.5114   19.0913   -7.9016 C   0  0  0  0  0  0  0  0  0  0  0  0
    0.2562   18.1836  -10.0565 C   0  0  0  0  0  0  0  0  0  0  0  0
   -1.0094   17.6955  -10.7079 C   0  0  0  0  0  0  0  0  0  0  0  0
   -1.9958   19.7602  -10.6326 C   0  0  0  0  0  0  0  0  0  0  0  0
   -0.8045   20.3976   -9.9595 C   0  0  0  0  0  0  0  0  0  0  0  0
   -0.2776   17.0588   -6.4396 C   0  0  0  0  0  0  0  0  0  0  0  0
    1.8166   12.2667   -4.4018 C   0  0  0  0  0  0  0  0  0  0  0  0
    4.1051   12.7540   -5.1298 C   0  0  0  0  0  0  0  0  0  0  0  0
    4.7692   13.6201   -4.0872 C   0  0  0  0  0  0  0  0  0  0  0  0
    5.4316   14.8315   -4.6842 C   0  0  0  0  0  0  0  0  0  0  0  0
    6.0812   15.8686   -4.0981 C   0  0  0  0  0  0  0  0  0  0  0  0
    6.1434   16.2503   -6.2141 C   0  0  0  0  0  0  0  0  0  0  0  0
    1.3279    9.6754   -3.2896 Br  0  0  0  0  0  0  0  0  0  0  0  0
  1  4  2  0  0  0  0
  2  4  1  0  0  0  0
  1  6  1  0  0  0  0
  5  6  1  0  0  0  0
  5  8  1  0  0  0  0
  6  9  2  0  0  0  0
  8 10  1  0  0  0  0
 10 12  2  0  0  0  0
 12 14  1  0  0  0  0
 14 16  2  0  0  0  0
  7 17  1  0  0  0  0
 16 17  1  0  0  0  0
  7 18  1  0  0  0  0
  3 19  1  0  0  0  0
 18 19  1  0  0  0  0
  3 20  1  0  0  0  0
  7 21  1  0  0  0  0
 20 21  1  0  0  0  0
  8 22  2  0  0  0  0
 16 22  1  0  0  0  0
  2 23  2  0  0  0  0
  9 23  1  0  0  0  0
 11 23  1  0  0  0  0
 11 24  1  0  0  0  0
 24 25  1  0  0  0  0
 15 26  1  0  0  0  0
 25 26  1  0  0  0  0
 13 27  1  0  0  0  0
 26 27  2  0  0  0  0
 13 28  2  0  0  0  0
 15 28  1  0  0  0  0
  2 29  1  0  0  0  0
M  END
$$$$
