7P1L
  PyMOL3.1          3D                             0

 29 32  0  0  0  0  0  0  0  0999 V2000
  -28.4426   35.9408  -36.0240 N   0  0  0  0  0  0  0  0  0  0  0  0
  -28.8504   37.5393  -34.3072 C   0  0  0  0  0  0  0  0  0  0  0  0
  -35.1155   29.9395  -39.3011 O   0  0  0  0  0  0  0  0  0  0  0  0
  -28.2783   37.1670  -35.5079 C   0  0  0  0  0  0  0  0  0  0  0  0
  -29.5560   33.9404  -35.8978 N   0  0  0  0  0  0  0  0  0  0  0  0
  -29.2046   35.1068  -35.2947 C   0  0  0  0  0  0  0  0  0  0  0  0
  -33.2747   29.3938  -37.1656 N   0  0  0  0  0  0  0  0  0  0  0  0
  -30.2690   32.8037  -35.4601 C   0  0  0  0  0  0  0  0  0  0  0  0
  -29.7994   35.3770  -34.1132 N   0  0  0  0  0  0  0  0  0  0  0  0
  -30.6979   32.5790  -34.1560 C   0  0  0  0  0  0  0  0  0  0  0  0
  -30.2145   36.9263  -32.4389 N   0  0  0  0  0  0  0  0  0  0  0  0
  -31.4964   31.4792  -33.8780 C   0  0  0  0  0  0  0  0  0  0  0  0
  -31.9744   31.8871  -29.7996 N   0  0  0  0  0  0  0  0  0  0  0  0
  -31.8878   30.6250  -34.9020 C   0  0  0  0  0  0  0  0  0  0  0  0
  -32.4873   33.6920  -30.9550 N   0  0  0  0  0  0  0  0  0  0  0  0
  -31.4532   30.8355  -36.2079 C   0  0  0  0  0  0  0  0  0  0  0  0
  -31.9501   29.9945  -37.3656 C   0  0  0  0  0  0  0  0  0  0  0  0
  -33.5907   28.3859  -38.2036 C   0  0  0  0  0  0  0  0  0  0  0  0
  -34.0176   29.0502  -39.4969 C   0  0  0  0  0  0  0  0  0  0  0  0
  -34.7126   30.9650  -38.4070 C   0  0  0  0  0  0  0  0  0  0  0  0
  -34.3499   30.4033  -37.0542 C   0  0  0  0  0  0  0  0  0  0  0  0
  -30.6004   31.9031  -36.4593 C   0  0  0  0  0  0  0  0  0  0  0  0
  -29.6210   36.6010  -33.6049 C   0  0  0  0  0  0  0  0  0  0  0  0
  -31.1167   36.0109  -31.7557 C   0  0  0  0  0  0  0  0  0  0  0  0
  -30.3655   35.0789  -30.8469 C   0  0  0  0  0  0  0  0  0  0  0  0
  -31.1900   33.8639  -30.5245 C   0  0  0  0  0  0  0  0  0  0  0  0
  -30.8941   32.7441  -29.8142 C   0  0  0  0  0  0  0  0  0  0  0  0
  -32.9139   32.4925  -30.5027 C   0  0  0  0  0  0  0  0  0  0  0  0
  -28.5757   39.2740  -33.5960 Br  0  0  0  0  0  0  0  0  0  0  0  0
  1  4  2  0  0  0  0
  2  4  1  0  0  0  0
  1  6  1  0  0  0  0
  5  6  1  0  0  0  0
  5  8  1  0  0  0  0
  6  9  2  0  0  0  0
  8 10  1  0  0  0  0
 10 12  2  0  0  0  0
 12 14  1  0  0  0  0
 14 16  2  0  0  0  0
  7 17  1  0  0  0  0
 16 17  1  0  0  0  0
  7 18  1  0  0  0  0
  3 19  1  0  0  0  0
 18 19  1  0  0  0  0
  3 20  1  0  0  0  0
  7 21  1  0  0  0  0
 20 21  1  0  0  0  0
  8 22  2  0  0  0  0
 16 22  1  0  0  0  0
  2 23  2  0  0  0  0
  9 23  1  0  0  0  0
 11 23  1  0  0  0  0
 11 24  1  0  0  0  0
 24 25  1  0  0  0  0
 15 26  1  0  0  0  0
 25 26  1  0  0  0  0
 13 27  1  0  0  0  0
 26 27  2  0  0  0  0
 13 28  2  0  0  0  0
 15 28  1  0  0  0  0
  2 29  1  0  0  0  0
M  END
$$$$
