8R4O
  PyMOL3.1          3D                             0

198216  0  0  0  0  0  0  0  0999 V2000
  -17.5400    8.9590  -94.2410 C   0  0  0  0  0  0  0  0  0  0  0  0
  -18.4940    7.9860  -94.6600 O   0  0  0  0  0  0  0  0  0  0  0  0
  -17.8820    6.7800  -94.9970 C   0  0  0  0  0  0  0  0  0  0  0  0
  -16.6280    6.3950  -94.5240 C   0  0  0  0  0  0  0  0  0  0  0  0
  -16.0660    5.1590  -94.8490 C   0  0  0  0  0  0  0  0  0  0  0  0
  -16.7560    4.2740  -95.6730 C   0  0  0  0  0  0  0  0  0  0  0  0
  -18.0190    4.6360  -96.1590 C   0  0  0  0  0  0  0  0  0  0  0  0
  -18.8230    3.8380  -96.9600 O   0  0  0  0  0  0  0  0  0  0  0  0
  -18.1150    2.7370  -97.5130 C   0  0  0  0  0  0  0  0  0  0  0  0
  -18.5640    5.8700  -95.8050 C   0  0  0  0  0  0  0  0  0  0  0  0
  -19.8830    6.2090  -96.3280 C   0  0  0  0  0  0  0  0  0  0  0  0
  -20.0690    6.3470  -97.5300 O   0  0  0  0  0  0  0  0  0  0  0  0
  -20.8020    6.3470  -95.3360 N   0  0  0  0  0  0  0  0  0  0  0  0
  -22.0650    6.9190  -95.5940 C   0  0  0  0  0  0  0  0  0  0  0  0
  -22.8140    7.6190  -94.4890 C   0  0  0  0  0  0  0  0  0  0  0  0
  -23.3130    6.3140  -95.0310 C   0  0  0  0  0  0  0  0  0  0  0  0
  -14.7800    4.8100  -94.3140 C   0  0  0  0  0  0  0  0  0  0  0  0
  -13.6560    4.2650  -94.9540 C   0  0  0  0  0  0  0  0  0  0  0  0
  -12.5990    4.1470  -94.1510 N   0  0  0  0  0  0  0  0  0  0  0  0
  -13.0370    4.6200  -92.9590 N   0  0  0  0  0  0  0  0  0  0  0  0
  -12.2950    4.7740  -91.7960 C   0  0  0  0  0  0  0  0  0  0  0  0
  -12.8740    5.2630  -90.6820 C   0  0  0  0  0  0  0  0  0  0  0  0
  -14.2750    5.6670  -90.7140 C   0  0  0  0  0  0  0  0  0  0  0  0
  -14.9850    5.5540  -91.8460 C   0  0  0  0  0  0  0  0  0  0  0  0
  -14.3700    5.0300  -93.0210 C   0  0  0  0  0  0  0  0  0  0  0  0
  -12.1850    5.4670  -89.3950 C   0  0  0  0  0  0  0  0  0  0  0  0
  -11.9670    6.9470  -89.2730 C   0  0  0  0  0  0  0  0  0  0  0  0
  -10.8690    4.7470  -89.3020 C   0  0  0  0  0  0  0  0  0  0  0  0
  -13.0370    5.0050  -88.3110 C   0  0  0  0  0  0  0  0  0  0  0  0
  -13.7110    4.6460  -87.4390 N   0  0  0  0  0  0  0  0  0  0  0  0
  -18.3040    1.6570  -96.7130 F   0  0  0  0  0  0  0  0  0  0  0  0
  -18.7310    2.4220  -98.6760 F   0  0  0  0  0  0  0  0  0  0  0  0
  -23.1530    5.1930  -94.2080 F   0  0  0  0  0  0  0  0  0  0  0  0
    3.7450   67.4150  -68.5370 C   0  0  0  0  0  0  0  0  0  0  0  0
    3.1610   67.7260  -67.2780 O   0  0  0  0  0  0  0  0  0  0  0  0
    4.0190   67.1810  -66.3350 C   0  0  0  0  0  0  0  0  0  0  0  0
    5.2540   67.7810  -66.0950 C   0  0  0  0  0  0  0  0  0  0  0  0
    6.1320   67.2700  -65.1430 C   0  0  0  0  0  0  0  0  0  0  0  0
    5.7680   66.1330  -64.4170 C   0  0  0  0  0  0  0  0  0  0  0  0
    4.5160   65.5370  -64.6220 C   0  0  0  0  0  0  0  0  0  0  0  0
    4.0780   64.3910  -63.9650 O   0  0  0  0  0  0  0  0  0  0  0  0
    4.4280   64.3850  -62.5850 C   0  0  0  0  0  0  0  0  0  0  0  0
    3.6580   66.0600  -65.5860 C   0  0  0  0  0  0  0  0  0  0  0  0
    2.3610   65.4230  -65.7950 C   0  0  0  0  0  0  0  0  0  0  0  0
    2.2430   64.2160  -65.9750 O   0  0  0  0  0  0  0  0  0  0  0  0
    1.3800   66.3610  -65.7000 N   0  0  0  0  0  0  0  0  0  0  0  0
    0.1440   66.2810  -66.3650 C   0  0  0  0  0  0  0  0  0  0  0  0
   -0.5610   67.5650  -66.6970 C   0  0  0  0  0  0  0  0  0  0  0  0
   -1.1350   66.6390  -65.6730 C   0  0  0  0  0  0  0  0  0  0  0  0
    7.3900   67.9310  -64.9100 C   0  0  0  0  0  0  0  0  0  0  0  0
    8.5980   67.4170  -64.4070 C   0  0  0  0  0  0  0  0  0  0  0  0
    9.5720   68.3260  -64.3570 N   0  0  0  0  0  0  0  0  0  0  0  0
    8.9990   69.4690  -64.8280 N   0  0  0  0  0  0  0  0  0  0  0  0
    9.6040   70.7240  -65.0170 C   0  0  0  0  0  0  0  0  0  0  0  0
    8.9020   71.7760  -65.5020 C   0  0  0  0  0  0  0  0  0  0  0  0
    7.4940   71.5720  -65.8450 C   0  0  0  0  0  0  0  0  0  0  0  0
    6.9160   70.3690  -65.6810 C   0  0  0  0  0  0  0  0  0  0  0  0
    7.6620   69.2570  -65.1730 C   0  0  0  0  0  0  0  0  0  0  0  0
    9.4540   73.1480  -65.7480 C   0  0  0  0  0  0  0  0  0  0  0  0
    9.3800   73.4130  -67.2280 C   0  0  0  0  0  0  0  0  0  0  0  0
   10.8850   73.2940  -65.3020 C   0  0  0  0  0  0  0  0  0  0  0  0
    8.6830   74.2020  -65.1000 C   0  0  0  0  0  0  0  0  0  0  0  0
    8.0920   75.0720  -64.6100 N   0  0  0  0  0  0  0  0  0  0  0  0
    3.6020   65.2210  -61.9090 F   0  0  0  0  0  0  0  0  0  0  0  0
    4.1030   63.1390  -62.1550 F   0  0  0  0  0  0  0  0  0  0  0  0
   -1.0150   67.0110  -64.3410 F   0  0  0  0  0  0  0  0  0  0  0  0
  -20.0040   41.3640  -29.8970 C   0  0  0  0  0  0  0  0  0  0  0  0
  -20.3480   42.3020  -30.9190 O   0  0  0  0  0  0  0  0  0  0  0  0
  -19.2110   42.9290  -31.4290 C   0  0  0  0  0  0  0  0  0  0  0  0
  -17.9240   42.3930  -31.3570 C   0  0  0  0  0  0  0  0  0  0  0  0
  -16.8250   43.0540  -31.8970 C   0  0  0  0  0  0  0  0  0  0  0  0
  -16.9970   44.2800  -32.5390 C   0  0  0  0  0  0  0  0  0  0  0  0
  -18.2830   44.8350  -32.6280 C   0  0  0  0  0  0  0  0  0  0  0  0
  -18.6260   46.0260  -33.2640 O   0  0  0  0  0  0  0  0  0  0  0  0
  -17.5110   46.8600  -33.5130 C   0  0  0  0  0  0  0  0  0  0  0  0
  -19.3630   44.1500  -32.0790 C   0  0  0  0  0  0  0  0  0  0  0  0
  -20.6770   44.7690  -32.1960 C   0  0  0  0  0  0  0  0  0  0  0  0
  -20.9100   45.8500  -31.6620 O   0  0  0  0  0  0  0  0  0  0  0  0
  -21.5330   44.0000  -32.9350 N   0  0  0  0  0  0  0  0  0  0  0  0
  -22.9130   44.2920  -32.9460 C   0  0  0  0  0  0  0  0  0  0  0  0
  -23.9120   43.1990  -33.2110 C   0  0  0  0  0  0  0  0  0  0  0  0
  -23.7230   44.3020  -34.2000 C   0  0  0  0  0  0  0  0  0  0  0  0
  -15.5360   42.4440  -31.8010 C   0  0  0  0  0  0  0  0  0  0  0  0
  -14.2990   42.9940  -31.4350 C   0  0  0  0  0  0  0  0  0  0  0  0
  -13.3060   42.1030  -31.4020 N   0  0  0  0  0  0  0  0  0  0  0  0
  -13.9000   40.9300  -31.7540 N   0  0  0  0  0  0  0  0  0  0  0  0
  -13.3110   39.6580  -31.8260 C   0  0  0  0  0  0  0  0  0  0  0  0
  -14.0430   38.5830  -32.1950 C   0  0  0  0  0  0  0  0  0  0  0  0
  -15.4640   38.7590  -32.4980 C   0  0  0  0  0  0  0  0  0  0  0  0
  -16.0450   39.9710  -32.4140 C   0  0  0  0  0  0  0  0  0  0  0  0
  -15.2670   41.1100  -32.0150 C   0  0  0  0  0  0  0  0  0  0  0  0
  -13.5410   37.1900  -32.3050 C   0  0  0  0  0  0  0  0  0  0  0  0
  -12.0370   37.0720  -32.2080 C   0  0  0  0  0  0  0  0  0  0  0  0
  -14.1500   36.3840  -31.1890 C   0  0  0  0  0  0  0  0  0  0  0  0
  -14.0240   36.6110  -33.5490 C   0  0  0  0  0  0  0  0  0  0  0  0
  -14.4210   36.1210  -34.5250 N   0  0  0  0  0  0  0  0  0  0  0  0
  -17.9730   48.1210  -33.2800 F   0  0  0  0  0  0  0  0  0  0  0  0
  -17.2340   46.7580  -34.8430 F   0  0  0  0  0  0  0  0  0  0  0  0
  -23.0370   43.9610  -35.3480 F   0  0  0  0  0  0  0  0  0  0  0  0
  -45.6760   80.8730  -75.9180 C   0  0  0  0  0  0  0  0  0  0  0  0
  -44.8860   81.4870  -76.9340 O   0  0  0  0  0  0  0  0  0  0  0  0
  -45.5460   81.4740  -78.1670 C   0  0  0  0  0  0  0  0  0  0  0  0
  -46.9290   81.3280  -78.3130 C   0  0  0  0  0  0  0  0  0  0  0  0
  -47.5300   81.3370  -79.5710 C   0  0  0  0  0  0  0  0  0  0  0  0
  -46.7570   81.5010  -80.7190 C   0  0  0  0  0  0  0  0  0  0  0  0
  -45.3690   81.6480  -80.5960 C   0  0  0  0  0  0  0  0  0  0  0  0
  -44.4870   81.8450  -81.6590 O   0  0  0  0  0  0  0  0  0  0  0  0
  -45.0090   81.4300  -82.9130 C   0  0  0  0  0  0  0  0  0  0  0  0
  -44.7920   81.6370  -79.3290 C   0  0  0  0  0  0  0  0  0  0  0  0
  -43.3530   81.7820  -79.2340 C   0  0  0  0  0  0  0  0  0  0  0  0
  -42.6160   80.9180  -79.6850 O   0  0  0  0  0  0  0  0  0  0  0  0
  -42.9900   82.9290  -78.6080 N   0  0  0  0  0  0  0  0  0  0  0  0
  -41.6440   83.1120  -78.2300 C   0  0  0  0  0  0  0  0  0  0  0  0
  -41.3080   84.0060  -77.0690 C   0  0  0  0  0  0  0  0  0  0  0  0
  -40.8900   84.3880  -78.4580 C   0  0  0  0  0  0  0  0  0  0  0  0
  -48.9460   81.1560  -79.6650 C   0  0  0  0  0  0  0  0  0  0  0  0
  -49.6820   80.3280  -80.5250 C   0  0  0  0  0  0  0  0  0  0  0  0
  -50.9930   80.3840  -80.2790 N   0  0  0  0  0  0  0  0  0  0  0  0
  -51.1270   81.2570  -79.2470 N   0  0  0  0  0  0  0  0  0  0  0  0
  -52.3120   81.6300  -78.6110 C   0  0  0  0  0  0  0  0  0  0  0  0
  -52.2780   82.5240  -77.6000 C   0  0  0  0  0  0  0  0  0  0  0  0
  -50.9810   83.0730  -77.1820 C   0  0  0  0  0  0  0  0  0  0  0  0
  -49.8350   82.6980  -77.7820 C   0  0  0  0  0  0  0  0  0  0  0  0
  -49.8810   81.7510  -78.8480 C   0  0  0  0  0  0  0  0  0  0  0  0
  -53.4710   83.0060  -76.8370 C   0  0  0  0  0  0  0  0  0  0  0  0
  -53.3790   82.3990  -75.4700 C   0  0  0  0  0  0  0  0  0  0  0  0
  -54.8000   82.6220  -77.4420 C   0  0  0  0  0  0  0  0  0  0  0  0
  -53.3860   84.4540  -76.7170 C   0  0  0  0  0  0  0  0  0  0  0  0
  -53.3040   85.6070  -76.6180 N   0  0  0  0  0  0  0  0  0  0  0  0
  -45.5620   82.5250  -83.4880 F   0  0  0  0  0  0  0  0  0  0  0  0
  -43.9420   81.1010  -83.6910 F   0  0  0  0  0  0  0  0  0  0  0  0
  -41.5900   85.4120  -79.0870 F   0  0  0  0  0  0  0  0  0  0  0  0
    8.8110   23.4460  -14.6900 C   0  0  0  0  0  0  0  0  0  0  0  0
    9.1510   22.4370  -13.7430 O   0  0  0  0  0  0  0  0  0  0  0  0
    8.0440   22.0750  -12.9810 C   0  0  0  0  0  0  0  0  0  0  0  0
    6.7150   22.2800  -13.3640 C   0  0  0  0  0  0  0  0  0  0  0  0
    5.6530   21.8670  -12.5560 C   0  0  0  0  0  0  0  0  0  0  0  0
    5.9100   21.2450  -11.3300 C   0  0  0  0  0  0  0  0  0  0  0  0
    7.2390   21.0340  -10.9290 C   0  0  0  0  0  0  0  0  0  0  0  0
    7.6580   20.4320   -9.7400 O   0  0  0  0  0  0  0  0  0  0  0  0
    6.6360   20.3630   -8.7740 C   0  0  0  0  0  0  0  0  0  0  0  0
    8.2810   21.4350  -11.7670 C   0  0  0  0  0  0  0  0  0  0  0  0
    9.6540   21.2130  -11.3130 C   0  0  0  0  0  0  0  0  0  0  0  0
   10.0810   21.7620  -10.3010 O   0  0  0  0  0  0  0  0  0  0  0  0
   10.3370   20.3650  -12.1330 N   0  0  0  0  0  0  0  0  0  0  0  0
   11.7400   20.2350  -11.9830 C   0  0  0  0  0  0  0  0  0  0  0  0
   12.6000   19.8510  -13.1560 C   0  0  0  0  0  0  0  0  0  0  0  0
   12.4690   18.9260  -11.9880 C   0  0  0  0  0  0  0  0  0  0  0  0
    4.3020   22.1290  -12.9920 C   0  0  0  0  0  0  0  0  0  0  0  0
    3.2000   22.6470  -12.2830 C   0  0  0  0  0  0  0  0  0  0  0  0
    2.1080   22.8020  -13.0390 N   0  0  0  0  0  0  0  0  0  0  0  0
    2.4840   22.3770  -14.2750 N   0  0  0  0  0  0  0  0  0  0  0  0
    1.7030   22.3500  -15.4380 C   0  0  0  0  0  0  0  0  0  0  0  0
    2.2260   21.9040  -16.6020 C   0  0  0  0  0  0  0  0  0  0  0  0
    3.6230   21.4630  -16.6200 C   0  0  0  0  0  0  0  0  0  0  0  0
    4.3840   21.4890  -15.5070 C   0  0  0  0  0  0  0  0  0  0  0  0
    3.8250   21.9640  -14.2770 C   0  0  0  0  0  0  0  0  0  0  0  0
    1.5100   21.8370  -17.9090 C   0  0  0  0  0  0  0  0  0  0  0  0
    0.0150   21.9800  -17.8040 C   0  0  0  0  0  0  0  0  0  0  0  0
    2.0660   22.8960  -18.8230 C   0  0  0  0  0  0  0  0  0  0  0  0
    1.8030   20.5760  -18.5490 C   0  0  0  0  0  0  0  0  0  0  0  0
    2.0480   19.5780  -19.0870 N   0  0  0  0  0  0  0  0  0  0  0  0
    6.1090   19.1250   -8.8860 F   0  0  0  0  0  0  0  0  0  0  0  0
    7.2720   20.3070   -7.5850 F   0  0  0  0  0  0  0  0  0  0  0  0
   11.6820   17.7990  -12.1540 F   0  0  0  0  0  0  0  0  0  0  0  0
   17.8790   12.6290  -85.3850 C   0  0  0  0  0  0  0  0  0  0  0  0
   18.9070   13.5760  -85.0870 O   0  0  0  0  0  0  0  0  0  0  0  0
   18.4380   14.8900  -85.0770 C   0  0  0  0  0  0  0  0  0  0  0  0
   17.0880   15.2430  -85.0800 C   0  0  0  0  0  0  0  0  0  0  0  0
   16.6790   16.5740  -85.0280 C   0  0  0  0  0  0  0  0  0  0  0  0
   17.6230   17.6000  -84.9720 C   0  0  0  0  0  0  0  0  0  0  0  0
   18.9830   17.2630  -84.9670 C   0  0  0  0  0  0  0  0  0  0  0  0
   20.0220   18.1800  -84.8340 O   0  0  0  0  0  0  0  0  0  0  0  0
   19.8830   19.3180  -85.6700 C   0  0  0  0  0  0  0  0  0  0  0  0
   19.3690   15.9230  -85.0050 C   0  0  0  0  0  0  0  0  0  0  0  0
   20.7910   15.6100  -84.9510 C   0  0  0  0  0  0  0  0  0  0  0  0
   21.5690   16.0440  -85.7800 O   0  0  0  0  0  0  0  0  0  0  0  0
   21.0980   14.8380  -83.8710 N   0  0  0  0  0  0  0  0  0  0  0  0
   22.3400   14.1710  -83.7480 C   0  0  0  0  0  0  0  0  0  0  0  0
   22.5430   13.1760  -82.6330 C   0  0  0  0  0  0  0  0  0  0  0  0
   23.3420   14.4430  -82.6620 C   0  0  0  0  0  0  0  0  0  0  0  0
   15.2720   16.8290  -84.9390 C   0  0  0  0  0  0  0  0  0  0  0  0
   14.4560   17.7560  -85.6020 C   0  0  0  0  0  0  0  0  0  0  0  0
   13.1710   17.6500  -85.2630 N   0  0  0  0  0  0  0  0  0  0  0  0
   13.1290   16.6370  -84.3560 N   0  0  0  0  0  0  0  0  0  0  0  0
   12.0010   16.0960  -83.7210 C   0  0  0  0  0  0  0  0  0  0  0  0
   12.1120   15.0700  -82.8490 C   0  0  0  0  0  0  0  0  0  0  0  0
   13.4540   14.5420  -82.5770 C   0  0  0  0  0  0  0  0  0  0  0  0
   14.5430   15.0470  -83.1860 C   0  0  0  0  0  0  0  0  0  0  0  0
   14.4090   16.1200  -84.1290 C   0  0  0  0  0  0  0  0  0  0  0  0
   10.9630   14.4510  -82.1070 C   0  0  0  0  0  0  0  0  0  0  0  0
   11.0010   12.9460  -82.2210 C   0  0  0  0  0  0  0  0  0  0  0  0
    9.6270   14.9090  -82.6320 C   0  0  0  0  0  0  0  0  0  0  0  0
   11.0120   14.8230  -80.6950 C   0  0  0  0  0  0  0  0  0  0  0  0
   11.0440   15.1170  -79.5730 N   0  0  0  0  0  0  0  0  0  0  0  0
   19.1330   20.2230  -84.9760 F   0  0  0  0  0  0  0  0  0  0  0  0
   21.1300   19.8770  -85.7360 F   0  0  0  0  0  0  0  0  0  0  0  0
   23.0220   15.4170  -81.7240 F   0  0  0  0  0  0  0  0  0  0  0  0
  1  2  1  0  0  0  0
  2  3  1  0  0  0  0
  3  4  2  0  0  0  0
  4  5  1  0  0  0  0
  5  6  2  0  0  0  0
  6  7  1  0  0  0  0
  7  8  1  0  0  0  0
  8  9  1  0  0  0  0
  3 10  1  0  0  0  0
  7 10  2  0  0  0  0
 10 11  1  0  0  0  0
 11 12  2  0  0  0  0
 11 13  1  0  0  0  0
 13 14  1  0  0  0  0
 14 15  1  0  0  0  0
 14 16  1  0  0  0  0
 15 16  1  0  0  0  0
  5 17  1  0  0  0  0
 17 18  1  0  0  0  0
 18 19  2  0  0  0  0
 19 20  1  0  0  0  0
 20 21  1  0  0  0  0
 21 22  2  0  0  0  0
 22 23  1  0  0  0  0
 23 24  2  0  0  0  0
 17 25  2  0  0  0  0
 20 25  1  0  0  0  0
 24 25  1  0  0  0  0
 22 26  1  0  0  0  0
 26 27  1  0  0  0  0
 26 28  1  0  0  0  0
 26 29  1  0  0  0  0
 29 30  3  0  0  0  0
  9 31  1  0  0  0  0
  9 32  1  0  0  0  0
 16 33  1  0  0  0  0
 34 35  1  0  0  0  0
 35 36  1  0  0  0  0
 36 37  2  0  0  0  0
 37 38  1  0  0  0  0
 38 39  2  0  0  0  0
 39 40  1  0  0  0  0
 40 41  1  0  0  0  0
 41 42  1  0  0  0  0
 36 43  1  0  0  0  0
 40 43  2  0  0  0  0
 43 44  1  0  0  0  0
 44 45  2  0  0  0  0
 44 46  1  0  0  0  0
 46 47  1  0  0  0  0
 47 48  1  0  0  0  0
 47 49  1  0  0  0  0
 48 49  1  0  0  0  0
 38 50  1  0  0  0  0
 50 51  1  0  0  0  0
 51 52  2  0  0  0  0
 52 53  1  0  0  0  0
 53 54  1  0  0  0  0
 54 55  2  0  0  0  0
 55 56  1  0  0  0  0
 56 57  2  0  0  0  0
 50 58  2  0  0  0  0
 53 58  1  0  0  0  0
 57 58  1  0  0  0  0
 55 59  1  0  0  0  0
 59 60  1  0  0  0  0
 59 61  1  0  0  0  0
 59 62  1  0  0  0  0
 62 63  3  0  0  0  0
 42 64  1  0  0  0  0
 42 65  1  0  0  0  0
 49 66  1  0  0  0  0
 67 68  1  0  0  0  0
 68 69  1  0  0  0  0
 69 70  2  0  0  0  0
 70 71  1  0  0  0  0
 71 72  2  0  0  0  0
 72 73  1  0  0  0  0
 73 74  1  0  0  0  0
 74 75  1  0  0  0  0
 69 76  1  0  0  0  0
 73 76  2  0  0  0  0
 76 77  1  0  0  0  0
 77 78  2  0  0  0  0
 77 79  1  0  0  0  0
 79 80  1  0  0  0  0
 80 81  1  0  0  0  0
 80 82  1  0  0  0  0
 81 82  1  0  0  0  0
 71 83  1  0  0  0  0
 83 84  1  0  0  0  0
 84 85  2  0  0  0  0
 85 86  1  0  0  0  0
 86 87  1  0  0  0  0
 87 88  2  0  0  0  0
 88 89  1  0  0  0  0
 89 90  2  0  0  0  0
 83 91  2  0  0  0  0
 86 91  1  0  0  0  0
 90 91  1  0  0  0  0
 88 92  1  0  0  0  0
 92 93  1  0  0  0  0
 92 94  1  0  0  0  0
 92 95  1  0  0  0  0
 95 96  3  0  0  0  0
 75 97  1  0  0  0  0
 75 98  1  0  0  0  0
 82 99  1  0  0  0  0
100101  1  0  0  0  0
101102  1  0  0  0  0
102103  2  0  0  0  0
103104  1  0  0  0  0
104105  2  0  0  0  0
105106  1  0  0  0  0
106107  1  0  0  0  0
107108  1  0  0  0  0
102109  1  0  0  0  0
106109  2  0  0  0  0
109110  1  0  0  0  0
110111  2  0  0  0  0
110112  1  0  0  0  0
112113  1  0  0  0  0
113114  1  0  0  0  0
113115  1  0  0  0  0
114115  1  0  0  0  0
104116  1  0  0  0  0
116117  1  0  0  0  0
117118  2  0  0  0  0
118119  1  0  0  0  0
119120  1  0  0  0  0
120121  2  0  0  0  0
121122  1  0  0  0  0
122123  2  0  0  0  0
116124  2  0  0  0  0
119124  1  0  0  0  0
123124  1  0  0  0  0
121125  1  0  0  0  0
125126  1  0  0  0  0
125127  1  0  0  0  0
125128  1  0  0  0  0
128129  3  0  0  0  0
108130  1  0  0  0  0
108131  1  0  0  0  0
115132  1  0  0  0  0
133134  1  0  0  0  0
134135  1  0  0  0  0
135136  2  0  0  0  0
136137  1  0  0  0  0
137138  2  0  0  0  0
138139  1  0  0  0  0
139140  1  0  0  0  0
140141  1  0  0  0  0
135142  1  0  0  0  0
139142  2  0  0  0  0
142143  1  0  0  0  0
143144  2  0  0  0  0
143145  1  0  0  0  0
145146  1  0  0  0  0
146147  1  0  0  0  0
146148  1  0  0  0  0
147148  1  0  0  0  0
137149  1  0  0  0  0
149150  1  0  0  0  0
150151  2  0  0  0  0
151152  1  0  0  0  0
152153  1  0  0  0  0
153154  2  0  0  0  0
154155  1  0  0  0  0
155156  2  0  0  0  0
149157  2  0  0  0  0
152157  1  0  0  0  0
156157  1  0  0  0  0
154158  1  0  0  0  0
158159  1  0  0  0  0
158160  1  0  0  0  0
158161  1  0  0  0  0
161162  3  0  0  0  0
141163  1  0  0  0  0
141164  1  0  0  0  0
148165  1  0  0  0  0
166167  1  0  0  0  0
167168  1  0  0  0  0
168169  2  0  0  0  0
169170  1  0  0  0  0
170171  2  0  0  0  0
171172  1  0  0  0  0
172173  1  0  0  0  0
173174  1  0  0  0  0
168175  1  0  0  0  0
172175  2  0  0  0  0
175176  1  0  0  0  0
176177  2  0  0  0  0
176178  1  0  0  0  0
178179  1  0  0  0  0
179180  1  0  0  0  0
179181  1  0  0  0  0
180181  1  0  0  0  0
170182  1  0  0  0  0
182183  1  0  0  0  0
183184  2  0  0  0  0
184185  1  0  0  0  0
185186  1  0  0  0  0
186187  2  0  0  0  0
187188  1  0  0  0  0
188189  2  0  0  0  0
182190  2  0  0  0  0
185190  1  0  0  0  0
189190  1  0  0  0  0
187191  1  0  0  0  0
191192  1  0  0  0  0
191193  1  0  0  0  0
191194  1  0  0  0  0
194195  3  0  0  0  0
174196  1  0  0  0  0
174197  1  0  0  0  0
181198  1  0  0  0  0
M  END
$$$$
