8V8U
  PyMOL3.1          3D                             0

 32 35  0  0  0  0  0  0  0  0999 V2000
    6.0450  -19.1210  -20.9500 C   0  0  0  0  0  0  0  0  0  0  0  0
    6.7650  -17.7670  -20.9770 C   0  0  0  0  0  0  0  0  0  0  0  0
    6.6640  -17.2680  -22.3640 N   0  0  0  0  0  0  0  0  0  0  0  0
    7.5030  -16.2980  -22.9340 C   0  0  0  0  0  0  0  0  0  0  0  0
    8.0330  -15.2730  -22.1370 C   0  0  0  0  0  0  0  0  0  0  0  0
    8.8610  -14.3170  -22.6900 C   0  0  0  0  0  0  0  0  0  0  0  0
    9.1790  -14.3500  -24.0430 C   0  0  0  0  0  0  0  0  0  0  0  0
    8.6630  -15.3550  -24.8410 C   0  0  0  0  0  0  0  0  0  0  0  0
    7.8190  -16.3440  -24.3180 C   0  0  0  0  0  0  0  0  0  0  0  0
    7.3340  -17.3610  -25.2410 C   0  0  0  0  0  0  0  0  0  0  0  0
    7.7240  -17.4620  -26.3950 O   0  0  0  0  0  0  0  0  0  0  0  0
    6.4120  -18.2540  -24.8420 O   0  5  0  0  0  0  0  0  0  0  0  0
    6.0070  -16.8140  -20.0420 C   0  0  0  0  0  0  0  0  0  0  0  0
    4.9380  -16.1240  -20.5320 C   0  0  0  0  0  0  0  0  0  0  0  0
    4.2040  -15.2270  -19.7210 C   0  0  0  0  0  0  0  0  0  0  0  0
    4.5580  -15.0340  -18.4210 C   0  0  0  0  0  0  0  0  0  0  0  0
    5.6550  -15.7250  -17.8820 N   0  0  0  0  0  0  0  0  0  0  0  0
    5.9960  -15.4960  -16.5250 C   0  0  0  0  0  0  0  0  0  0  0  0
    5.2850  -14.6880  -15.8960 O   0  0  0  0  0  0  0  0  0  0  0  0
    7.1020  -16.1930  -15.9740 C   0  0  0  0  0  0  0  0  0  0  0  0
    7.7960  -17.0690  -16.7990 C   0  0  0  0  0  0  0  0  0  0  0  0
    7.4370  -17.2550  -18.1010 N   0  0  0  0  0  0  0  0  0  0  0  0
    6.4130  -16.6310  -18.6620 C   0  0  0  0  0  0  0  0  0  0  0  0
    8.9150  -17.8510  -16.4810 N   0  0  0  0  0  0  0  0  0  0  0  0
    9.5870  -17.9110  -15.1500 C   0  0  0  0  0  0  0  0  0  0  0  0
   11.1080  -17.7270  -15.2470 C   0  0  0  0  0  0  0  0  0  0  0  0
   11.5320  -17.4410  -16.6880 C   0  0  0  0  0  0  0  0  0  0  0  0
   11.0610  -18.6340  -17.5230 C   0  0  0  0  0  0  0  0  0  0  0  0
    9.5330  -18.7380  -17.5080 C   0  0  0  0  0  0  0  0  0  0  0  0
    7.3230  -15.8600  -14.5940 C   0  0  0  0  0  0  0  0  0  0  0  0
    7.5020  -15.6010  -13.4980 N   0  0  0  0  0  0  0  0  0  0  0  0
    3.0300  -14.5050  -20.3410 C   0  0  0  0  0  0  0  0  0  0  0  0
  1  2  1  0  0  0  0
  2  3  1  0  0  0  0
  3  4  1  0  0  0  0
  4  5  2  0  0  0  0
  5  6  1  0  0  0  0
  6  7  2  0  0  0  0
  7  8  1  0  0  0  0
  4  9  1  0  0  0  0
  8  9  2  0  0  0  0
  9 10  1  0  0  0  0
 10 11  1  0  0  0  0
 10 12  2  0  0  0  0
  2 13  1  0  0  0  0
 13 14  2  0  0  0  0
 14 15  1  0  0  0  0
 15 16  2  0  0  0  0
 16 17  1  0  0  0  0
 17 18  1  0  0  0  0
 18 19  2  0  0  0  0
 18 20  1  0  0  0  0
 20 21  2  0  0  0  0
 21 22  1  0  0  0  0
 13 23  1  0  0  0  0
 17 23  1  0  0  0  0
 22 23  2  0  0  0  0
 21 24  1  0  0  0  0
 24 25  1  0  0  0  0
 25 26  1  0  0  0  0
 26 27  1  0  0  0  0
 27 28  1  0  0  0  0
 24 29  1  0  0  0  0
 28 29  1  0  0  0  0
 20 30  1  0  0  0  0
 30 31  3  0  0  0  0
 15 32  1  0  0  0  0
M  END
$$$$
