7XNK
  PyMOL3.1          3D                             0

 57 60  0  0  0  0  0  0  0  0999 V2000
  109.3420  133.4770  102.4060 N   0  0  0  0  0  0  0  0  0  0  0  0
  108.7660  133.3960  103.8030 C   0  0  0  0  0  0  0  0  0  0  0  0
  107.9640  135.7200  103.6910 C   0  0  0  0  0  0  0  0  0  0  0  0
  108.4380  135.8250  102.3560 C   0  0  0  0  0  0  0  0  0  0  0  0
  109.6080  134.9240  102.1030 C   0  0  0  0  0  0  0  0  0  0  0  0
  107.0750  132.9190  100.7850 C   0  0  0  0  0  0  0  0  0  0  0  0
  106.0720  132.3460  101.5170 C   0  0  0  0  0  0  0  0  0  0  0  0
  104.7740  132.6770  101.2450 C   0  0  0  0  0  0  0  0  0  0  0  0
  104.5010  133.5620  100.2470 C   0  0  0  0  0  0  0  0  0  0  0  0
  103.0720  133.9100   99.9570 C   0  0  0  0  0  0  0  0  0  0  0  0
  105.4990  134.1320   99.5120 C   0  0  0  0  0  0  0  0  0  0  0  0
  106.7960  133.8050   99.7840 C   0  0  0  0  0  0  0  0  0  0  0  0
  112.3170  133.7940  105.2560 C   0  0  0  0  0  0  0  0  0  0  0  0
  114.5240  134.2010  105.6690 C   0  0  0  0  0  0  0  0  0  0  0  0
  115.9620  134.4450  105.3260 C   0  0  0  0  0  0  0  0  0  0  0  0
  116.4490  134.0310  104.1370 C   0  0  0  0  0  0  0  0  0  0  0  0
  117.7480  134.2670  103.8150 C   0  0  0  0  0  0  0  0  0  0  0  0
  118.5600  134.9240  104.6900 C   0  0  0  0  0  0  0  0  0  0  0  0
  109.8450  133.6830  104.8270 C   0  0  0  0  0  0  0  0  0  0  0  0
  109.5790  134.0240  105.9080 O   0  0  0  0  0  0  0  0  0  0  0  0
  111.1980  133.5370  104.4180 N   0  0  0  0  0  0  0  0  0  0  0  0
  113.5320  133.9640  104.6640 N   0  0  0  0  0  0  0  0  0  0  0  0
  108.9650  131.1090  101.3860 O   0  0  0  0  0  0  0  0  0  0  0  0
  109.5830  132.7580   99.9430 O   0  0  0  0  0  0  0  0  0  0  0  0
  108.7830  132.5210  101.1290 S   0  0  0  0  0  0  0  0  0  0  0  0
  107.6460  134.3770  104.0360 C   0  0  0  0  0  0  0  0  0  0  0  0
  120.4870  134.6580  103.3440 C   0  0  0  0  0  0  0  0  0  0  0  0
  118.0540  135.3450  105.8720 C   0  0  0  0  0  0  0  0  0  0  0  0
  116.7550  135.1100  106.1920 C   0  0  0  0  0  0  0  0  0  0  0  0
  113.9520  134.2040  106.9390 C   0  0  0  0  0  0  0  0  0  0  0  0
  119.8930  135.2150  104.4550 O   0  0  0  0  0  0  0  0  0  0  0  0
  112.3940  133.9230  106.8550 S   0  0  0  0  0  0  0  0  0  0  0  0
  106.9090  134.1210  103.4920 H   0  0  0  0  0  0  0  0  0  0  0  0
  107.3810  134.3530  104.9560 H   0  0  0  0  0  0  0  0  0  0  0  0
  107.1640  136.2410  103.7650 H   0  0  0  0  0  0  0  0  0  0  0  0
  108.6310  136.0550  104.2850 H   0  0  0  0  0  0  0  0  0  0  0  0
  107.7290  135.5820  101.7670 H   0  0  0  0  0  0  0  0  0  0  0  0
  108.7080  136.7300  102.1920 H   0  0  0  0  0  0  0  0  0  0  0  0
  110.3340  135.2400  102.6390 H   0  0  0  0  0  0  0  0  0  0  0  0
  106.2730  131.7540  102.1940 H   0  0  0  0  0  0  0  0  0  0  0  0
  104.0810  132.3090  101.7270 H   0  0  0  0  0  0  0  0  0  0  0  0
  102.5170  133.1540  100.1710 H   0  0  0  0  0  0  0  0  0  0  0  0
  102.9920  134.1380   99.0250 H   0  0  0  0  0  0  0  0  0  0  0  0
  102.8210  134.6580  100.5050 H   0  0  0  0  0  0  0  0  0  0  0  0
  105.2960  134.7280   98.8390 H   0  0  0  0  0  0  0  0  0  0  0  0
  107.4840  134.1810   99.3010 H   0  0  0  0  0  0  0  0  0  0  0  0
  115.9030  133.5870  103.5600 H   0  0  0  0  0  0  0  0  0  0  0  0
  118.0730  133.9760  103.0140 H   0  0  0  0  0  0  0  0  0  0  0  0
  120.0970  135.0100  102.5490 H   0  0  0  0  0  0  0  0  0  0  0  0
  120.3990  133.7100  103.3610 H   0  0  0  0  0  0  0  0  0  0  0  0
  121.4140  134.8700  103.3410 H   0  0  0  0  0  0  0  0  0  0  0  0
  118.5960  135.7900  106.4570 H   0  0  0  0  0  0  0  0  0  0  0  0
  116.4130  135.3890  106.9920 H   0  0  0  0  0  0  0  0  0  0  0  0
  114.4200  134.3390  107.7100 H   0  0  0  0  0  0  0  0  0  0  0  0
  111.3620  133.3020  103.6280 H   0  0  0  0  0  0  0  0  0  0  0  0
  108.4370  132.5110  103.9330 H   0  0  0  0  0  0  0  0  0  0  0  0
  109.8340  134.9770  101.1710 H   0  0  0  0  0  0  0  0  0  0  0  0
  1  2  1  0  0  0  0
  3  4  1  0  0  0  0
  1  5  1  0  0  0  0
  4  5  1  0  0  0  0
  6  7  2  0  0  0  0
  7  8  1  0  0  0  0
  8  9  2  0  0  0  0
  9 10  1  0  0  0  0
  9 11  1  0  0  0  0
  6 12  1  0  0  0  0
 11 12  2  0  0  0  0
 14 15  1  0  0  0  0
 15 16  2  0  0  0  0
 16 17  1  0  0  0  0
 17 18  2  0  0  0  0
  2 19  1  0  0  0  0
 19 20  2  0  0  0  0
 13 21  1  0  0  0  0
 19 21  1  0  0  0  0
 13 22  2  0  0  0  0
 14 22  1  0  0  0  0
  1 25  1  0  0  0  0
  6 25  1  0  0  0  0
 23 25  2  0  0  0  0
 24 25  2  0  0  0  0
  2 26  1  0  0  0  0
  3 26  1  0  0  0  0
 18 28  1  0  0  0  0
 15 29  1  0  0  0  0
 28 29  2  0  0  0  0
 14 30  2  0  0  0  0
 18 31  1  0  0  0  0
 27 31  1  0  0  0  0
 13 32  1  0  0  0  0
 30 32  1  0  0  0  0
 26 33  1  0  0  0  0
 26 34  1  0  0  0  0
  3 35  1  0  0  0  0
  3 36  1  0  0  0  0
  4 37  1  0  0  0  0
  4 38  1  0  0  0  0
  5 39  1  0  0  0  0
  7 40  1  0  0  0  0
  8 41  1  0  0  0  0
 10 42  1  0  0  0  0
 10 43  1  0  0  0  0
 10 44  1  0  0  0  0
 11 45  1  0  0  0  0
 12 46  1  0  0  0  0
 16 47  1  0  0  0  0
 17 48  1  0  0  0  0
 27 49  1  0  0  0  0
 27 50  1  0  0  0  0
 27 51  1  0  0  0  0
 28 52  1  0  0  0  0
 29 53  1  0  0  0  0
 30 54  1  0  0  0  0
 21 55  1  0  0  0  0
  2 56  1  0  0  0  0
  5 57  1  0  0  0  0
M  END
$$$$
