9AVA
  PyMOL3.1          3D                             0

 37 40  0  0  0  0  0  0  0  0999 V2000
  -45.8090  -43.6720    5.2330 N   0  0  0  0  0  0  0  0  0  0  0  0
  -44.3660  -43.9670    5.2730 C   0  0  0  0  0  0  0  0  0  0  0  0
  -43.8240  -46.1410    6.1300 O   0  0  0  0  0  0  0  0  0  0  0  0
  -49.5220  -46.6380   -0.7700 Cl  0  0  0  0  0  0  0  0  0  0  0  0
  -51.2560  -44.6000    0.9770 Cl  0  0  0  0  0  0  0  0  0  0  0  0
  -43.8960  -43.3930    6.6170 C   0  0  0  0  0  0  0  0  0  0  0  0
  -44.4010  -46.0610    3.9520 N   0  0  0  0  0  0  0  0  0  0  0  0
  -45.4660  -48.6770    2.1170 O   0  0  0  0  0  0  0  0  0  0  0  0
  -45.1930  -43.0380    7.3510 C   0  0  0  0  0  0  0  0  0  0  0  0
  -46.4930  -48.1820    4.0620 N   0  0  0  0  0  0  0  0  0  0  0  0
  -46.0610  -42.5740    6.1930 C   0  0  0  0  0  0  0  0  0  0  0  0
  -44.9260  -42.0970    8.4410 N   0  0  0  0  0  0  0  0  0  0  0  0
  -46.4340  -43.5060    3.9050 C   0  0  0  0  0  0  0  0  0  0  0  0
  -47.8960  -43.0540    3.9690 C   0  0  0  0  0  0  0  0  0  0  0  0
  -48.4210  -42.3390    2.7160 C   0  0  0  0  0  0  0  0  0  0  0  0
  -47.5890  -41.1460    2.3000 C   0  0  0  0  0  0  0  0  0  0  0  0
  -47.2920  -40.1250    3.2080 C   0  0  0  0  0  0  0  0  0  0  0  0
  -46.5440  -39.0240    2.8160 C   0  0  0  0  0  0  0  0  0  0  0  0
  -46.0870  -38.9200    1.5130 C   0  0  0  0  0  0  0  0  0  0  0  0
  -46.3750  -39.9260    0.6010 C   0  0  0  0  0  0  0  0  0  0  0  0
  -47.1140  -41.0340    0.9930 C   0  0  0  0  0  0  0  0  0  0  0  0
  -46.3170  -44.7740    3.0200 C   0  0  0  0  0  0  0  0  0  0  0  0
  -44.8990  -45.3010    2.7960 C   0  0  0  0  0  0  0  0  0  0  0  0
  -44.1650  -45.4880    5.1570 C   0  0  0  0  0  0  0  0  0  0  0  0
  -44.1790  -47.4970    3.7910 C   0  0  0  0  0  0  0  0  0  0  0  0
  -42.9140  -47.7720    2.9630 C   0  0  0  0  0  0  0  0  0  0  0  0
  -41.5840  -47.3840    3.6230 C   0  0  0  0  0  0  0  0  0  0  0  0
  -40.4650  -47.4400    2.6240 C   0  0  0  0  0  0  0  0  0  0  0  0
  -41.2340  -48.2590    4.8300 C   0  0  0  0  0  0  0  0  0  0  0  0
  -45.4390  -48.1800    3.2410 C   0  0  0  0  0  0  0  0  0  0  0  0
  -47.7900  -48.7240    3.6810 C   0  0  0  0  0  0  0  0  0  0  0  0
  -48.6570  -47.7020    2.9900 C   0  0  0  0  0  0  0  0  0  0  0  0
  -49.4090  -46.7980    3.7320 C   0  0  0  0  0  0  0  0  0  0  0  0
  -50.1870  -45.8380    3.1090 C   0  0  0  0  0  0  0  0  0  0  0  0
  -50.2280  -45.7760    1.7260 C   0  0  0  0  0  0  0  0  0  0  0  0
  -49.4770  -46.6710    0.9680 C   0  0  0  0  0  0  0  0  0  0  0  0
  -48.6970  -47.6260    1.5980 C   0  0  0  0  0  0  0  0  0  0  0  0
  1  2  1  0  0  0  0
  2  6  1  0  0  0  0
  6  9  1  0  0  0  0
  1 11  1  0  0  0  0
  9 11  1  0  0  0  0
  9 12  1  0  0  0  0
  1 13  1  0  0  0  0
 13 14  1  0  0  0  0
 14 15  1  0  0  0  0
 15 16  1  0  0  0  0
 16 17  2  0  0  0  0
 17 18  1  0  0  0  0
 18 19  2  0  0  0  0
 19 20  1  0  0  0  0
 16 21  1  0  0  0  0
 20 21  2  0  0  0  0
 13 22  1  0  0  0  0
  7 23  1  0  0  0  0
 22 23  1  0  0  0  0
  2 24  1  0  0  0  0
  3 24  2  0  0  0  0
  7 24  1  0  0  0  0
  7 25  1  0  0  0  0
 25 26  1  0  0  0  0
 26 27  1  0  0  0  0
 27 28  1  0  0  0  0
 27 29  1  0  0  0  0
  8 30  2  0  0  0  0
 10 30  1  0  0  0  0
 25 30  1  0  0  0  0
 10 31  1  0  0  0  0
 31 32  1  0  0  0  0
 32 33  2  0  0  0  0
 33 34  1  0  0  0  0
  5 35  1  0  0  0  0
 34 35  2  0  0  0  0
  4 36  1  0  0  0  0
 35 36  1  0  0  0  0
 32 37  1  0  0  0  0
 36 37  2  0  0  0  0
M  END
$$$$
