9AVA
  PyMOL3.1          3D                             0

 37 40  0  0  0  0  0  0  0  0999 V2000
  -67.6410  -28.0680  -35.7060 N   0  0  0  0  0  0  0  0  0  0  0  0
  -66.1800  -28.2380  -35.8320 C   0  0  0  0  0  0  0  0  0  0  0  0
  -65.6030  -30.3080  -36.9210 O   0  0  0  0  0  0  0  0  0  0  0  0
  -71.2280  -25.2060  -42.2840 Cl  0  0  0  0  0  0  0  0  0  0  0  0
  -72.6850  -25.1980  -39.4240 Cl  0  0  0  0  0  0  0  0  0  0  0  0
  -65.7160  -28.8520  -34.5060 C   0  0  0  0  0  0  0  0  0  0  0  0
  -66.0840  -28.5530  -38.2590 N   0  0  0  0  0  0  0  0  0  0  0  0
  -67.0190  -28.2820  -41.3000 O   0  0  0  0  0  0  0  0  0  0  0  0
  -67.0120  -29.2440  -33.7900 C   0  0  0  0  0  0  0  0  0  0  0  0
  -68.1130  -29.9500  -40.2480 N   0  0  0  0  0  0  0  0  0  0  0  0
  -67.9680  -28.1570  -34.2660 C   0  0  0  0  0  0  0  0  0  0  0  0
  -66.7530  -29.3390  -32.3510 N   0  0  0  0  0  0  0  0  0  0  0  0
  -68.1680  -26.8860  -36.4220 C   0  0  0  0  0  0  0  0  0  0  0  0
  -69.6350  -26.5440  -36.1560 C   0  0  0  0  0  0  0  0  0  0  0  0
  -70.0890  -25.1190  -36.5010 C   0  0  0  0  0  0  0  0  0  0  0  0
  -69.3200  -24.0130  -35.8160 C   0  0  0  0  0  0  0  0  0  0  0  0
  -69.2030  -23.9730  -34.4250 C   0  0  0  0  0  0  0  0  0  0  0  0
  -68.4520  -22.9830  -33.8060 C   0  0  0  0  0  0  0  0  0  0  0  0
  -67.8350  -22.0010  -34.5620 C   0  0  0  0  0  0  0  0  0  0  0  0
  -67.9690  -22.0130  -35.9420 C   0  0  0  0  0  0  0  0  0  0  0  0
  -68.6980  -23.0150  -36.5650 C   0  0  0  0  0  0  0  0  0  0  0  0
  -67.9520  -26.9510  -37.9510 C   0  0  0  0  0  0  0  0  0  0  0  0
  -66.5080  -27.1520  -38.4110 C   0  0  0  0  0  0  0  0  0  0  0  0
  -65.9020  -29.1300  -37.0480 C   0  0  0  0  0  0  0  0  0  0  0  0
  -65.8960  -29.3580  -39.4640 C   0  0  0  0  0  0  0  0  0  0  0  0
  -64.5200  -29.0970  -40.0890 C   0  0  0  0  0  0  0  0  0  0  0  0
  -64.0230  -30.1950  -41.0310 C   0  0  0  0  0  0  0  0  0  0  0  0
  -62.6950  -29.8070  -41.6690 C   0  0  0  0  0  0  0  0  0  0  0  0
  -63.8960  -31.5450  -40.3170 C   0  0  0  0  0  0  0  0  0  0  0  0
  -67.0570  -29.1590  -40.4400 C   0  0  0  0  0  0  0  0  0  0  0  0
  -69.2890  -29.8930  -41.1060 C   0  0  0  0  0  0  0  0  0  0  0  0
  -70.1950  -28.7440  -40.7390 C   0  0  0  0  0  0  0  0  0  0  0  0
  -70.8910  -28.7550  -39.5360 C   0  0  0  0  0  0  0  0  0  0  0  0
  -71.6760  -27.6800  -39.1550 C   0  0  0  0  0  0  0  0  0  0  0  0
  -71.7670  -26.5670  -39.9740 C   0  0  0  0  0  0  0  0  0  0  0  0
  -71.0900  -26.5500  -41.1940 C   0  0  0  0  0  0  0  0  0  0  0  0
  -70.3130  -27.6320  -41.5720 C   0  0  0  0  0  0  0  0  0  0  0  0
  1  2  1  0  0  0  0
  2  6  1  0  0  0  0
  6  9  1  0  0  0  0
  1 11  1  0  0  0  0
  9 11  1  0  0  0  0
  9 12  1  0  0  0  0
  1 13  1  0  0  0  0
 13 14  1  0  0  0  0
 14 15  1  0  0  0  0
 15 16  1  0  0  0  0
 16 17  2  0  0  0  0
 17 18  1  0  0  0  0
 18 19  2  0  0  0  0
 19 20  1  0  0  0  0
 16 21  1  0  0  0  0
 20 21  2  0  0  0  0
 13 22  1  0  0  0  0
  7 23  1  0  0  0  0
 22 23  1  0  0  0  0
  2 24  1  0  0  0  0
  3 24  2  0  0  0  0
  7 24  1  0  0  0  0
  7 25  1  0  0  0  0
 25 26  1  0  0  0  0
 26 27  1  0  0  0  0
 27 28  1  0  0  0  0
 27 29  1  0  0  0  0
  8 30  2  0  0  0  0
 10 30  1  0  0  0  0
 25 30  1  0  0  0  0
 10 31  1  0  0  0  0
 31 32  1  0  0  0  0
 32 33  2  0  0  0  0
 33 34  1  0  0  0  0
  5 35  1  0  0  0  0
 34 35  2  0  0  0  0
  4 36  1  0  0  0  0
 35 36  1  0  0  0  0
 32 37  1  0  0  0  0
 36 37  2  0  0  0  0
M  END
$$$$
