9AVA
  PyMOL3.1          3D                             0

 37 40  0  0  0  0  0  0  0  0999 V2000
   -1.4210  -42.9630    5.6510 N   0  0  0  0  0  0  0  0  0  0  0  0
   -2.8750  -42.8430    5.4420 C   0  0  0  0  0  0  0  0  0  0  0  0
   -3.4250  -41.1630    3.8250 O   0  0  0  0  0  0  0  0  0  0  0  0
    2.2570  -47.2760    0.5650 Cl  0  0  0  0  0  0  0  0  0  0  0  0
    3.7900  -46.5180    3.2800 Cl  0  0  0  0  0  0  0  0  0  0  0  0
   -3.3640  -41.8750    6.5300 C   0  0  0  0  0  0  0  0  0  0  0  0
   -2.8810  -43.2040    3.0060 N   0  0  0  0  0  0  0  0  0  0  0  0
   -1.8300  -43.9040   -0.0730 O   0  0  0  0  0  0  0  0  0  0  0  0
   -2.0830  -41.2730    7.1100 C   0  0  0  0  0  0  0  0  0  0  0  0
   -0.8230  -42.2380    1.0580 N   0  0  0  0  0  0  0  0  0  0  0  0
   -1.1210  -42.4520    7.0050 C   0  0  0  0  0  0  0  0  0  0  0  0
   -2.3130  -40.7740    8.4710 N   0  0  0  0  0  0  0  0  0  0  0  0
   -0.7770  -44.2400    5.2620 C   0  0  0  0  0  0  0  0  0  0  0  0
    0.7090  -44.3820    5.6110 C   0  0  0  0  0  0  0  0  0  0  0  0
    1.2740  -45.8080    5.6750 C   0  0  0  0  0  0  0  0  0  0  0  0
    0.5340  -46.7390    6.6090 C   0  0  0  0  0  0  0  0  0  0  0  0
    0.3400  -46.4050    7.9490 C   0  0  0  0  0  0  0  0  0  0  0  0
   -0.4350  -47.2070    8.7720 C   0  0  0  0  0  0  0  0  0  0  0  0
   -1.0110  -48.3620    8.2760 C   0  0  0  0  0  0  0  0  0  0  0  0
   -0.7910  -48.7260    6.9620 C   0  0  0  0  0  0  0  0  0  0  0  0
   -0.0220  -47.9230    6.1330 C   0  0  0  0  0  0  0  0  0  0  0  0
   -0.9430  -44.5570    3.7550 C   0  0  0  0  0  0  0  0  0  0  0  0
   -2.3780  -44.5690    3.2330 C   0  0  0  0  0  0  0  0  0  0  0  0
   -3.1030  -42.3260    4.0180 C   0  0  0  0  0  0  0  0  0  0  0  0
   -3.1230  -42.7820    1.6300 C   0  0  0  0  0  0  0  0  0  0  0  0
   -4.3980  -43.4300    1.0690 C   0  0  0  0  0  0  0  0  0  0  0  0
   -5.7190  -42.8830    1.6270 C   0  0  0  0  0  0  0  0  0  0  0  0
   -6.8560  -43.8180    1.3260 C   0  0  0  0  0  0  0  0  0  0  0  0
   -6.0430  -41.4870    1.0970 C   0  0  0  0  0  0  0  0  0  0  0  0
   -1.8690  -43.0200    0.7780 C   0  0  0  0  0  0  0  0  0  0  0  0
    0.4680  -42.3880    0.4010 C   0  0  0  0  0  0  0  0  0  0  0  0
    1.3460  -43.4180    1.0660 C   0  0  0  0  0  0  0  0  0  0  0  0
    2.1110  -43.0780    2.1750 C   0  0  0  0  0  0  0  0  0  0  0  0
    2.8640  -44.0300    2.8400 C   0  0  0  0  0  0  0  0  0  0  0  0
    2.8710  -45.3400    2.3940 C   0  0  0  0  0  0  0  0  0  0  0  0
    2.1380  -45.6890    1.2620 C   0  0  0  0  0  0  0  0  0  0  0  0
    1.3680  -44.7370    0.6150 C   0  0  0  0  0  0  0  0  0  0  0  0
  1  2  1  0  0  0  0
  2  6  1  0  0  0  0
  6  9  1  0  0  0  0
  1 11  1  0  0  0  0
  9 11  1  0  0  0  0
  9 12  1  0  0  0  0
  1 13  1  0  0  0  0
 13 14  1  0  0  0  0
 14 15  1  0  0  0  0
 15 16  1  0  0  0  0
 16 17  2  0  0  0  0
 17 18  1  0  0  0  0
 18 19  2  0  0  0  0
 19 20  1  0  0  0  0
 16 21  1  0  0  0  0
 20 21  2  0  0  0  0
 13 22  1  0  0  0  0
  7 23  1  0  0  0  0
 22 23  1  0  0  0  0
  2 24  1  0  0  0  0
  3 24  2  0  0  0  0
  7 24  1  0  0  0  0
  7 25  1  0  0  0  0
 25 26  1  0  0  0  0
 26 27  1  0  0  0  0
 27 28  1  0  0  0  0
 27 29  1  0  0  0  0
  8 30  2  0  0  0  0
 10 30  1  0  0  0  0
 25 30  1  0  0  0  0
 10 31  1  0  0  0  0
 31 32  1  0  0  0  0
 32 33  2  0  0  0  0
 33 34  1  0  0  0  0
  5 35  1  0  0  0  0
 34 35  2  0  0  0  0
  4 36  1  0  0  0  0
 35 36  1  0  0  0  0
 32 37  1  0  0  0  0
 36 37  2  0  0  0  0
M  END
$$$$
