9AVA
  PyMOL3.1          3D                             0

 37 40  0  0  0  0  0  0  0  0999 V2000
  -21.9920  -15.6740  -44.3030 N   0  0  0  0  0  0  0  0  0  0  0  0
  -20.5450  -15.8270  -44.0620 C   0  0  0  0  0  0  0  0  0  0  0  0
  -20.0050  -16.3400  -41.7810 O   0  0  0  0  0  0  0  0  0  0  0  0
  -25.7990  -22.4070  -45.1050 Cl  0  0  0  0  0  0  0  0  0  0  0  0
  -27.2420  -19.6660  -45.9380 Cl  0  0  0  0  0  0  0  0  0  0  0  0
  -20.0330  -14.3990  -43.8270 C   0  0  0  0  0  0  0  0  0  0  0  0
  -20.5600  -18.0990  -43.0690 N   0  0  0  0  0  0  0  0  0  0  0  0
  -21.4110  -21.1320  -41.6370 O   0  0  0  0  0  0  0  0  0  0  0  0
  -21.3060  -13.5450  -43.7680 C   0  0  0  0  0  0  0  0  0  0  0  0
  -22.5740  -19.2600  -41.1890 N   0  0  0  0  0  0  0  0  0  0  0  0
  -22.2060  -14.2810  -44.7510 C   0  0  0  0  0  0  0  0  0  0  0  0
  -21.0400  -12.1210  -44.0140 N   0  0  0  0  0  0  0  0  0  0  0  0
  -22.6150  -16.7010  -45.1660 C   0  0  0  0  0  0  0  0  0  0  0  0
  -24.0870  -16.4440  -45.4970 C   0  0  0  0  0  0  0  0  0  0  0  0
  -24.6410  -17.1660  -46.7290 C   0  0  0  0  0  0  0  0  0  0  0  0
  -23.8050  -16.9930  -47.9760 C   0  0  0  0  0  0  0  0  0  0  0  0
  -23.5240  -15.7240  -48.4810 C   0  0  0  0  0  0  0  0  0  0  0  0
  -22.7400  -15.5710  -49.6160 C   0  0  0  0  0  0  0  0  0  0  0  0
  -22.2440  -16.6830  -50.2760 C   0  0  0  0  0  0  0  0  0  0  0  0
  -22.5350  -17.9510  -49.7970 C   0  0  0  0  0  0  0  0  0  0  0  0
  -23.3010  -18.1050  -48.6500 C   0  0  0  0  0  0  0  0  0  0  0  0
  -22.4910  -18.1620  -44.6410 C   0  0  0  0  0  0  0  0  0  0  0  0
  -21.0740  -18.6430  -44.3360 C   0  0  0  0  0  0  0  0  0  0  0  0
  -20.3370  -16.7770  -42.8720 C   0  0  0  0  0  0  0  0  0  0  0  0
  -20.2880  -19.0300  -41.9740 C   0  0  0  0  0  0  0  0  0  0  0  0
  -19.0340  -19.8470  -42.2990 C   0  0  0  0  0  0  0  0  0  0  0  0
  -17.7130  -19.1250  -42.0700 C   0  0  0  0  0  0  0  0  0  0  0  0
  -16.5750  -19.9060  -42.7200 C   0  0  0  0  0  0  0  0  0  0  0  0
  -17.4430  -18.9320  -40.5680 C   0  0  0  0  0  0  0  0  0  0  0  0
  -21.4880  -19.9060  -41.6080 C   0  0  0  0  0  0  0  0  0  0  0  0
  -23.8440  -19.9380  -40.9620 C   0  0  0  0  0  0  0  0  0  0  0  0
  -24.7360  -19.9060  -42.1770 C   0  0  0  0  0  0  0  0  0  0  0  0
  -25.4530  -18.7580  -42.4960 C   0  0  0  0  0  0  0  0  0  0  0  0
  -26.2170  -18.6910  -43.6480 C   0  0  0  0  0  0  0  0  0  0  0  0
  -26.2900  -19.7870  -44.4920 C   0  0  0  0  0  0  0  0  0  0  0  0
  -25.6000  -20.9560  -44.1690 C   0  0  0  0  0  0  0  0  0  0  0  0
  -24.8170  -21.0060  -43.0280 C   0  0  0  0  0  0  0  0  0  0  0  0
  1  2  1  0  0  0  0
  2  6  1  0  0  0  0
  6  9  1  0  0  0  0
  1 11  1  0  0  0  0
  9 11  1  0  0  0  0
  9 12  1  0  0  0  0
  1 13  1  0  0  0  0
 13 14  1  0  0  0  0
 14 15  1  0  0  0  0
 15 16  1  0  0  0  0
 16 17  2  0  0  0  0
 17 18  1  0  0  0  0
 18 19  2  0  0  0  0
 19 20  1  0  0  0  0
 16 21  1  0  0  0  0
 20 21  2  0  0  0  0
 13 22  1  0  0  0  0
  7 23  1  0  0  0  0
 22 23  1  0  0  0  0
  2 24  1  0  0  0  0
  3 24  2  0  0  0  0
  7 24  1  0  0  0  0
  7 25  1  0  0  0  0
 25 26  1  0  0  0  0
 26 27  1  0  0  0  0
 27 28  1  0  0  0  0
 27 29  1  0  0  0  0
  8 30  2  0  0  0  0
 10 30  1  0  0  0  0
 25 30  1  0  0  0  0
 10 31  1  0  0  0  0
 31 32  1  0  0  0  0
 32 33  2  0  0  0  0
 33 34  1  0  0  0  0
  5 35  1  0  0  0  0
 34 35  2  0  0  0  0
  4 36  1  0  0  0  0
 35 36  1  0  0  0  0
 32 37  1  0  0  0  0
 36 37  2  0  0  0  0
M  END
$$$$
