9AVA
  PyMOL3.1          3D                             0

 37 40  0  0  0  0  0  0  0  0999 V2000
  -45.8130   12.8600  -37.1420 N   0  0  0  0  0  0  0  0  0  0  0  0
  -47.2640   12.9540  -36.9020 C   0  0  0  0  0  0  0  0  0  0  0  0
  -48.0110   12.4790  -34.6770 O   0  0  0  0  0  0  0  0  0  0  0  0
  -41.9950   19.3840  -35.0650 Cl  0  0  0  0  0  0  0  0  0  0  0  0
  -40.6790   17.2030  -36.9990 Cl  0  0  0  0  0  0  0  0  0  0  0  0
  -47.8370   11.5930  -37.3180 C   0  0  0  0  0  0  0  0  0  0  0  0
  -47.2090   14.5640  -35.0120 N   0  0  0  0  0  0  0  0  0  0  0  0
  -46.3290   16.8970  -32.8140 O   0  0  0  0  0  0  0  0  0  0  0  0
  -46.6030   10.7460  -37.6470 C   0  0  0  0  0  0  0  0  0  0  0  0
  -45.2360   14.9240  -32.6640 N   0  0  0  0  0  0  0  0  0  0  0  0
  -45.6290   11.8040  -38.1580 C   0  0  0  0  0  0  0  0  0  0  0  0
  -46.9370    9.6340  -38.5470 N   0  0  0  0  0  0  0  0  0  0  0  0
  -45.1650   14.1390  -37.5120 C   0  0  0  0  0  0  0  0  0  0  0  0
  -43.7380   14.0440  -38.0560 C   0  0  0  0  0  0  0  0  0  0  0  0
  -43.1830   15.2020  -38.9020 C   0  0  0  0  0  0  0  0  0  0  0  0
  -44.0880   15.6760  -40.0160 C   0  0  0  0  0  0  0  0  0  0  0  0
  -44.4080   14.8410  -41.0830 C   0  0  0  0  0  0  0  0  0  0  0  0
  -45.2440   15.2800  -42.0990 C   0  0  0  0  0  0  0  0  0  0  0  0
  -45.7560   16.5680  -42.0750 C   0  0  0  0  0  0  0  0  0  0  0  0
  -45.4390   17.4090  -41.0250 C   0  0  0  0  0  0  0  0  0  0  0  0
  -44.6190   16.9660  -39.9970 C   0  0  0  0  0  0  0  0  0  0  0  0
  -45.2180   15.1730  -36.3610 C   0  0  0  0  0  0  0  0  0  0  0  0
  -46.6150   15.5750  -35.8980 C   0  0  0  0  0  0  0  0  0  0  0  0
  -47.5240   13.3090  -35.4300 C   0  0  0  0  0  0  0  0  0  0  0  0
  -47.4650   14.9330  -33.6240 C   0  0  0  0  0  0  0  0  0  0  0  0
  -48.7970   15.6890  -33.5290 C   0  0  0  0  0  0  0  0  0  0  0  0
  -49.6080   15.4600  -32.2500 C   0  0  0  0  0  0  0  0  0  0  0  0
  -49.3020   16.4780  -31.1540 C   0  0  0  0  0  0  0  0  0  0  0  0
  -49.5580   14.0280  -31.7150 C   0  0  0  0  0  0  0  0  0  0  0  0
  -46.2850   15.6810  -32.9980 C   0  0  0  0  0  0  0  0  0  0  0  0
  -43.9620   15.4860  -32.2360 C   0  0  0  0  0  0  0  0  0  0  0  0
  -43.0970   15.9300  -33.3890 C   0  0  0  0  0  0  0  0  0  0  0  0
  -42.4250   14.9990  -34.1730 C   0  0  0  0  0  0  0  0  0  0  0  0
  -41.6740   15.3950  -35.2660 C   0  0  0  0  0  0  0  0  0  0  0  0
  -41.5740   16.7390  -35.5840 C   0  0  0  0  0  0  0  0  0  0  0  0
  -42.2100   17.6860  -34.7860 C   0  0  0  0  0  0  0  0  0  0  0  0
  -42.9770   17.2820  -33.7060 C   0  0  0  0  0  0  0  0  0  0  0  0
  1  2  1  0  0  0  0
  2  6  1  0  0  0  0
  6  9  1  0  0  0  0
  1 11  1  0  0  0  0
  9 11  1  0  0  0  0
  9 12  1  0  0  0  0
  1 13  1  0  0  0  0
 13 14  1  0  0  0  0
 14 15  1  0  0  0  0
 15 16  1  0  0  0  0
 16 17  2  0  0  0  0
 17 18  1  0  0  0  0
 18 19  2  0  0  0  0
 19 20  1  0  0  0  0
 16 21  1  0  0  0  0
 20 21  2  0  0  0  0
 13 22  1  0  0  0  0
  7 23  1  0  0  0  0
 22 23  1  0  0  0  0
  2 24  1  0  0  0  0
  3 24  2  0  0  0  0
  7 24  1  0  0  0  0
  7 25  1  0  0  0  0
 25 26  1  0  0  0  0
 26 27  1  0  0  0  0
 27 28  1  0  0  0  0
 27 29  1  0  0  0  0
  8 30  2  0  0  0  0
 10 30  1  0  0  0  0
 25 30  1  0  0  0  0
 10 31  1  0  0  0  0
 31 32  1  0  0  0  0
 32 33  2  0  0  0  0
 33 34  1  0  0  0  0
  5 35  1  0  0  0  0
 34 35  2  0  0  0  0
  4 36  1  0  0  0  0
 35 36  1  0  0  0  0
 32 37  1  0  0  0  0
 36 37  2  0  0  0  0
M  END
$$$$
