9AVA
  PyMOL3.1          3D                             0

 37 40  0  0  0  0  0  0  0  0999 V2000
  -23.4020  -30.7990  -37.3280 N   0  0  0  0  0  0  0  0  0  0  0  0
  -24.8510  -30.5410  -37.3090 C   0  0  0  0  0  0  0  0  0  0  0  0
  -25.3450  -28.4810  -36.1550 O   0  0  0  0  0  0  0  0  0  0  0  0
  -19.6880  -27.3030  -43.1100 Cl  0  0  0  0  0  0  0  0  0  0  0  0
  -18.2300  -29.5770  -41.4530 Cl  0  0  0  0  0  0  0  0  0  0  0  0
  -25.3890  -31.3200  -36.0990 C   0  0  0  0  0  0  0  0  0  0  0  0
  -24.8510  -28.3400  -38.3670 N   0  0  0  0  0  0  0  0  0  0  0  0
  -23.9280  -25.7140  -40.1160 O   0  0  0  0  0  0  0  0  0  0  0  0
  -24.1320  -31.7620  -35.3460 C   0  0  0  0  0  0  0  0  0  0  0  0
  -22.8550  -26.0220  -38.1590 N   0  0  0  0  0  0  0  0  0  0  0  0
  -23.1620  -31.9930  -36.4950 C   0  0  0  0  0  0  0  0  0  0  0  0
  -24.4250  -32.9630  -34.5510 N   0  0  0  0  0  0  0  0  0  0  0  0
  -22.7830  -30.8520  -38.6690 C   0  0  0  0  0  0  0  0  0  0  0  0
  -21.2950  -31.2030  -38.6070 C   0  0  0  0  0  0  0  0  0  0  0  0
  -20.6540  -31.7470  -39.8940 C   0  0  0  0  0  0  0  0  0  0  0  0
  -21.4530  -32.8360  -40.5700 C   0  0  0  0  0  0  0  0  0  0  0  0
  -21.7720  -34.0130  -39.8950 C   0  0  0  0  0  0  0  0  0  0  0  0
  -22.5350  -34.9940  -40.5090 C   0  0  0  0  0  0  0  0  0  0  0  0
  -22.9840  -34.8200  -41.8020 C   0  0  0  0  0  0  0  0  0  0  0  0
  -22.6470  -33.6690  -42.4930 C   0  0  0  0  0  0  0  0  0  0  0  0
  -21.8950  -32.6800  -41.8790 C   0  0  0  0  0  0  0  0  0  0  0  0
  -22.9790  -29.5500  -39.5410 C   0  0  0  0  0  0  0  0  0  0  0  0
  -24.4010  -28.9930  -39.6070 C   0  0  0  0  0  0  0  0  0  0  0  0
  -25.0510  -29.0260  -37.2140 C   0  0  0  0  0  0  0  0  0  0  0  0
  -25.1110  -26.9030  -38.3930 C   0  0  0  0  0  0  0  0  0  0  0  0
  -26.4080  -26.5830  -39.1460 C   0  0  0  0  0  0  0  0  0  0  0  0
  -27.7110  -26.8570  -38.3920 C   0  0  0  0  0  0  0  0  0  0  0  0
  -28.8580  -26.9550  -39.3710 C   0  0  0  0  0  0  0  0  0  0  0  0
  -28.0240  -25.7840  -37.3480 C   0  0  0  0  0  0  0  0  0  0  0  0
  -23.9080  -26.1520  -38.9680 C   0  0  0  0  0  0  0  0  0  0  0  0
  -21.5900  -25.4590  -38.6120 C   0  0  0  0  0  0  0  0  0  0  0  0
  -20.7340  -26.4670  -39.3400 C   0  0  0  0  0  0  0  0  0  0  0  0
  -20.0490  -27.4440  -38.6310 C   0  0  0  0  0  0  0  0  0  0  0  0
  -19.2890  -28.3970  -39.2830 C   0  0  0  0  0  0  0  0  0  0  0  0
  -19.1990  -28.3800  -40.6630 C   0  0  0  0  0  0  0  0  0  0  0  0
  -19.8620  -27.4020  -41.3870 C   0  0  0  0  0  0  0  0  0  0  0  0
  -20.6320  -26.4550  -40.7310 C   0  0  0  0  0  0  0  0  0  0  0  0
  1  2  1  0  0  0  0
  2  6  1  0  0  0  0
  6  9  1  0  0  0  0
  1 11  1  0  0  0  0
  9 11  1  0  0  0  0
  9 12  1  0  0  0  0
  1 13  1  0  0  0  0
 13 14  1  0  0  0  0
 14 15  1  0  0  0  0
 15 16  1  0  0  0  0
 16 17  2  0  0  0  0
 17 18  1  0  0  0  0
 18 19  2  0  0  0  0
 19 20  1  0  0  0  0
 16 21  1  0  0  0  0
 20 21  2  0  0  0  0
 13 22  1  0  0  0  0
  7 23  1  0  0  0  0
 22 23  1  0  0  0  0
  2 24  1  0  0  0  0
  3 24  2  0  0  0  0
  7 24  1  0  0  0  0
  7 25  1  0  0  0  0
 25 26  1  0  0  0  0
 26 27  1  0  0  0  0
 27 28  1  0  0  0  0
 27 29  1  0  0  0  0
  8 30  2  0  0  0  0
 10 30  1  0  0  0  0
 25 30  1  0  0  0  0
 10 31  1  0  0  0  0
 31 32  1  0  0  0  0
 32 33  2  0  0  0  0
 33 34  1  0  0  0  0
  5 35  1  0  0  0  0
 34 35  2  0  0  0  0
  4 36  1  0  0  0  0
 35 36  1  0  0  0  0
 32 37  1  0  0  0  0
 36 37  2  0  0  0  0
M  END
$$$$
