8TZ5
  PyMOL3.1          3D                             0

 31 32  0  0  0  0  0  0  0  0999 V2000
  127.3780  133.7450  137.6510 O   0  0  0  0  0  0  0  0  0  0  0  0
  127.8770  133.1500  138.5380 C   0  0  0  0  0  0  0  0  0  0  0  0
  128.6720  131.9330  138.2520 N   0  0  0  0  0  0  0  0  0  0  0  0
  129.2870  131.1970  139.3400 C   0  0  0  0  0  0  0  0  0  0  0  0
  130.0520  130.0270  139.0740 N   0  0  0  0  0  0  0  0  0  0  0  0
  130.6360  129.3340  140.1340 O   0  0  0  0  0  0  0  0  0  0  0  0
  129.1180  131.6650  140.7380 C   0  0  0  0  0  0  0  0  0  0  0  0
  128.3190  132.8900  141.0220 C   0  0  0  0  0  0  0  0  0  0  0  0
  127.7070  133.6220  139.9370 N   0  0  0  0  0  0  0  0  0  0  0  0
  126.9390  134.7970  140.2200 C   0  0  0  0  0  0  0  0  0  0  0  0
  127.2390  135.2370  141.3990 O   0  0  0  0  0  0  0  0  0  0  0  0
  125.9290  135.4970  142.0930 C   0  0  0  0  0  0  0  0  0  0  0  0
  126.0020  135.1630  143.4610 C   0  0  0  0  0  0  0  0  0  0  0  0
  126.5100  133.8690  143.5710 O   0  0  0  0  0  0  0  0  0  0  0  0
  124.9170  134.5410  141.3780 C   0  0  0  0  0  0  0  0  0  0  0  0
  123.5390  135.1560  141.3680 O   0  0  0  0  0  0  0  0  0  0  0  0
  125.3430  134.4180  140.2100 C   0  0  0  0  0  0  0  0  0  0  0  0
  124.6150  135.3400  139.3070 O   0  0  0  0  0  0  0  0  0  0  0  0
  130.1710  129.7030  138.1250 H   0  0  0  0  0  0  0  0  0  0  0  0
  130.8370  128.4480  139.8720 H   0  0  0  0  0  0  0  0  0  0  0  0
  129.5740  131.1220  141.5470 H   0  0  0  0  0  0  0  0  0  0  0  0
  128.1960  133.2330  142.0440 H   0  0  0  0  0  0  0  0  0  0  0  0
  127.1380  135.5640  139.4820 H   0  0  0  0  0  0  0  0  0  0  0  0
  125.6360  136.5210  141.9620 H   0  0  0  0  0  0  0  0  0  0  0  0
  124.9970  135.1970  143.9010 H   0  0  0  0  0  0  0  0  0  0  0  0
  126.6510  135.8570  143.9770 H   0  0  0  0  0  0  0  0  0  0  0  0
  125.9720  133.3730  144.1770 H   0  0  0  0  0  0  0  0  0  0  0  0
  124.9010  133.5790  141.8800 H   0  0  0  0  0  0  0  0  0  0  0  0
  122.9950  134.7100  141.9940 H   0  0  0  0  0  0  0  0  0  0  0  0
  125.2120  133.3880  139.8790 H   0  0  0  0  0  0  0  0  0  0  0  0
  124.8180  135.1260  138.4170 H   0  0  0  0  0  0  0  0  0  0  0  0
  1  2  2  0  0  0  0
  2  3  1  0  0  0  0
  3  4  2  0  0  0  0
  4  5  1  0  0  0  0
  5  6  1  0  0  0  0
  4  7  1  0  0  0  0
  7  8  2  0  0  0  0
  2  9  1  0  0  0  0
  8  9  1  0  0  0  0
  9 10  1  0  0  0  0
 10 11  1  0  0  0  0
 11 12  1  0  0  0  0
 12 13  1  0  0  0  0
 13 14  1  0  0  0  0
 12 15  1  0  0  0  0
 15 16  1  0  0  0  0
 10 17  1  0  0  0  0
 15 17  1  0  0  0  0
 17 18  1  0  0  0  0
  5 19  1  0  0  0  0
  6 20  1  0  0  0  0
  7 21  1  0  0  0  0
  8 22  1  0  0  0  0
 10 23  1  0  0  0  0
 12 24  1  0  0  0  0
 13 25  1  0  0  0  0
 13 26  1  0  0  0  0
 14 27  1  0  0  0  0
 15 28  1  0  0  0  0
 16 29  1  0  0  0  0
 17 30  1  0  0  0  0
 18 31  1  0  0  0  0
M  END
$$$$
