8TZ5
  PyMOL3.1          3D                             0

 93 96  0  0  0  0  0  0  0  0999 V2000
  142.0450  158.8690  137.8680 O   0  0  0  0  0  0  0  0  0  0  0  0
  141.2840  158.7440  138.7600 C   0  0  0  0  0  0  0  0  0  0  0  0
  139.8310  158.6720  138.4820 N   0  0  0  0  0  0  0  0  0  0  0  0
  138.8900  158.5180  139.5740 C   0  0  0  0  0  0  0  0  0  0  0  0
  137.4920  158.4480  139.3160 N   0  0  0  0  0  0  0  0  0  0  0  0
  136.6040  158.3000  140.3820 O   0  0  0  0  0  0  0  0  0  0  0  0
  139.3870  158.4340  140.9700 C   0  0  0  0  0  0  0  0  0  0  0  0
  140.8480  158.5050  141.2470 C   0  0  0  0  0  0  0  0  0  0  0  0
  141.7840  158.6580  140.1560 N   0  0  0  0  0  0  0  0  0  0  0  0
  143.1880  158.7280  140.4320 C   0  0  0  0  0  0  0  0  0  0  0  0
  143.4210  158.2520  141.6120 O   0  0  0  0  0  0  0  0  0  0  0  0
  144.3120  159.2540  142.2970 C   0  0  0  0  0  0  0  0  0  0  0  0
  143.9940  159.3670  143.6660 C   0  0  0  0  0  0  0  0  0  0  0  0
  142.6210  159.5830  143.7820 O   0  0  0  0  0  0  0  0  0  0  0  0
  143.9950  160.6080  141.5770 C   0  0  0  0  0  0  0  0  0  0  0  0
  145.2220  161.4860  141.5570 O   0  0  0  0  0  0  0  0  0  0  0  0
  143.6670  160.2970  140.4120 C   0  0  0  0  0  0  0  0  0  0  0  0
  144.8260  160.4540  139.5030 O   0  0  0  0  0  0  0  0  0  0  0  0
  137.1490  158.5050  138.3680 H   0  0  0  0  0  0  0  0  0  0  0  0
  135.7380  158.5730  140.1230 H   0  0  0  0  0  0  0  0  0  0  0  0
  138.6910  158.3190  141.7840 H   0  0  0  0  0  0  0  0  0  0  0  0
  141.2120  158.4430  142.2680 H   0  0  0  0  0  0  0  0  0  0  0  0
  143.7450  158.1650  139.6940 H   0  0  0  0  0  0  0  0  0  0  0  0
  145.3430  158.9890  142.1620 H   0  0  0  0  0  0  0  0  0  0  0  0
  144.5330  160.2190  144.1000 H   0  0  0  0  0  0  0  0  0  0  0  0
  144.2670  158.4580  144.1850 H   0  0  0  0  0  0  0  0  0  0  0  0
  142.4680  160.3010  144.3850 H   0  0  0  0  0  0  0  0  0  0  0  0
  143.1760  161.1100  142.0810 H   0  0  0  0  0  0  0  0  0  0  0  0
  145.1150  162.1840  142.1800 H   0  0  0  0  0  0  0  0  0  0  0  0
  142.8430  160.9290  140.0830 H   0  0  0  0  0  0  0  0  0  0  0  0
  144.5350  160.3830  138.6140 H   0  0  0  0  0  0  0  0  0  0  0  0
  127.3780  133.7450  137.6510 O   0  0  0  0  0  0  0  0  0  0  0  0
  127.8770  133.1500  138.5380 C   0  0  0  0  0  0  0  0  0  0  0  0
  128.6720  131.9330  138.2520 N   0  0  0  0  0  0  0  0  0  0  0  0
  129.2870  131.1970  139.3400 C   0  0  0  0  0  0  0  0  0  0  0  0
  130.0520  130.0270  139.0740 N   0  0  0  0  0  0  0  0  0  0  0  0
  130.6360  129.3340  140.1340 O   0  0  0  0  0  0  0  0  0  0  0  0
  129.1180  131.6650  140.7380 C   0  0  0  0  0  0  0  0  0  0  0  0
  128.3190  132.8900  141.0220 C   0  0  0  0  0  0  0  0  0  0  0  0
  127.7070  133.6220  139.9370 N   0  0  0  0  0  0  0  0  0  0  0  0
  126.9390  134.7970  140.2200 C   0  0  0  0  0  0  0  0  0  0  0  0
  127.2390  135.2370  141.3990 O   0  0  0  0  0  0  0  0  0  0  0  0
  125.9290  135.4970  142.0930 C   0  0  0  0  0  0  0  0  0  0  0  0
  126.0020  135.1630  143.4610 C   0  0  0  0  0  0  0  0  0  0  0  0
  126.5100  133.8690  143.5710 O   0  0  0  0  0  0  0  0  0  0  0  0
  124.9170  134.5410  141.3780 C   0  0  0  0  0  0  0  0  0  0  0  0
  123.5390  135.1560  141.3680 O   0  0  0  0  0  0  0  0  0  0  0  0
  125.3430  134.4180  140.2100 C   0  0  0  0  0  0  0  0  0  0  0  0
  124.6150  135.3400  139.3070 O   0  0  0  0  0  0  0  0  0  0  0  0
  130.1710  129.7030  138.1250 H   0  0  0  0  0  0  0  0  0  0  0  0
  130.8370  128.4480  139.8720 H   0  0  0  0  0  0  0  0  0  0  0  0
  129.5740  131.1220  141.5470 H   0  0  0  0  0  0  0  0  0  0  0  0
  128.1960  133.2330  142.0440 H   0  0  0  0  0  0  0  0  0  0  0  0
  127.1380  135.5640  139.4820 H   0  0  0  0  0  0  0  0  0  0  0  0
  125.6360  136.5210  141.9620 H   0  0  0  0  0  0  0  0  0  0  0  0
  124.9970  135.1970  143.9010 H   0  0  0  0  0  0  0  0  0  0  0  0
  126.6510  135.8570  143.9770 H   0  0  0  0  0  0  0  0  0  0  0  0
  125.9720  133.3730  144.1770 H   0  0  0  0  0  0  0  0  0  0  0  0
  124.9010  133.5790  141.8800 H   0  0  0  0  0  0  0  0  0  0  0  0
  122.9950  134.7100  141.9940 H   0  0  0  0  0  0  0  0  0  0  0  0
  125.2120  133.3880  139.8790 H   0  0  0  0  0  0  0  0  0  0  0  0
  124.8180  135.1260  138.4170 H   0  0  0  0  0  0  0  0  0  0  0  0
  156.7440  133.5540  137.9050 O   0  0  0  0  0  0  0  0  0  0  0  0
  157.0130  134.2830  138.7920 C   0  0  0  0  0  0  0  0  0  0  0  0
  157.6700  135.5790  138.5060 N   0  0  0  0  0  0  0  0  0  0  0  0
  158.0030  136.4790  139.5930 C   0  0  0  0  0  0  0  0  0  0  0  0
  158.6350  137.7260  139.3270 N   0  0  0  0  0  0  0  0  0  0  0  0
  158.9460  138.5770  140.3880 O   0  0  0  0  0  0  0  0  0  0  0  0
  157.6850  136.0970  140.9920 C   0  0  0  0  0  0  0  0  0  0  0  0
  157.0230  134.7930  141.2770 C   0  0  0  0  0  0  0  0  0  0  0  0
  156.6910  133.8990  140.1910 N   0  0  0  0  0  0  0  0  0  0  0  0
  156.0570  132.6460  140.4750 C   0  0  0  0  0  0  0  0  0  0  0  0
  155.5280  132.6860  141.6550 O   0  0  0  0  0  0  0  0  0  0  0  0
  155.9580  131.4200  142.3470 C   0  0  0  0  0  0  0  0  0  0  0  0
  156.2140  131.6480  143.7140 C   0  0  0  0  0  0  0  0  0  0  0  0
  157.0820  132.7340  143.8240 O   0  0  0  0  0  0  0  0  0  0  0  0
  157.2900  131.0200  141.6280 C   0  0  0  0  0  0  0  0  0  0  0  0
  157.4450  129.5200  141.6170 O   0  0  0  0  0  0  0  0  0  0  0  0
  157.1820  131.4520  140.4610 C   0  0  0  0  0  0  0  0  0  0  0  0
  156.7430  130.3620  139.5580 O   0  0  0  0  0  0  0  0  0  0  0  0
  158.8540  137.9900  138.3780 H   0  0  0  0  0  0  0  0  0  0  0  0
  159.6130  139.1920  140.1250 H   0  0  0  0  0  0  0  0  0  0  0  0
  157.9300  136.7630  141.8020 H   0  0  0  0  0  0  0  0  0  0  0  0
  156.7890  134.5140  142.2990 H   0  0  0  0  0  0  0  0  0  0  0  0
  155.2910  132.4370  139.7380 H   0  0  0  0  0  0  0  0  0  0  0  0
  155.2160  130.6560  142.2160 H   0  0  0  0  0  0  0  0  0  0  0  0
  156.6870  130.7600  144.1530 H   0  0  0  0  0  0  0  0  0  0  0  0
  155.2900  131.8640  144.2330 H   0  0  0  0  0  0  0  0  0  0  0  0
  157.7820  132.5160  144.4280 H   0  0  0  0  0  0  0  0  0  0  0  0
  158.1330  131.4860  142.1290 H   0  0  0  0  0  0  0  0  0  0  0  0
  158.1040  129.2700  142.2420 H   0  0  0  0  0  0  0  0  0  0  0  0
  158.1390  131.8530  140.1290 H   0  0  0  0  0  0  0  0  0  0  0  0
  156.8260  130.6450  138.6680 H   0  0  0  0  0  0  0  0  0  0  0  0
  1  2  2  0  0  0  0
  2  3  1  0  0  0  0
  3  4  2  0  0  0  0
  4  5  1  0  0  0  0
  5  6  1  0  0  0  0
  4  7  1  0  0  0  0
  7  8  2  0  0  0  0
  2  9  1  0  0  0  0
  8  9  1  0  0  0  0
  9 10  1  0  0  0  0
 10 11  1  0  0  0  0
 11 12  1  0  0  0  0
 12 13  1  0  0  0  0
 13 14  1  0  0  0  0
 12 15  1  0  0  0  0
 15 16  1  0  0  0  0
 10 17  1  0  0  0  0
 15 17  1  0  0  0  0
 17 18  1  0  0  0  0
  5 19  1  0  0  0  0
  6 20  1  0  0  0  0
  7 21  1  0  0  0  0
  8 22  1  0  0  0  0
 10 23  1  0  0  0  0
 12 24  1  0  0  0  0
 13 25  1  0  0  0  0
 13 26  1  0  0  0  0
 14 27  1  0  0  0  0
 15 28  1  0  0  0  0
 16 29  1  0  0  0  0
 17 30  1  0  0  0  0
 18 31  1  0  0  0  0
 32 33  2  0  0  0  0
 33 34  1  0  0  0  0
 34 35  2  0  0  0  0
 35 36  1  0  0  0  0
 36 37  1  0  0  0  0
 35 38  1  0  0  0  0
 38 39  2  0  0  0  0
 33 40  1  0  0  0  0
 39 40  1  0  0  0  0
 40 41  1  0  0  0  0
 41 42  1  0  0  0  0
 42 43  1  0  0  0  0
 43 44  1  0  0  0  0
 44 45  1  0  0  0  0
 43 46  1  0  0  0  0
 46 47  1  0  0  0  0
 41 48  1  0  0  0  0
 46 48  1  0  0  0  0
 48 49  1  0  0  0  0
 36 50  1  0  0  0  0
 37 51  1  0  0  0  0
 38 52  1  0  0  0  0
 39 53  1  0  0  0  0
 41 54  1  0  0  0  0
 43 55  1  0  0  0  0
 44 56  1  0  0  0  0
 44 57  1  0  0  0  0
 45 58  1  0  0  0  0
 46 59  1  0  0  0  0
 47 60  1  0  0  0  0
 48 61  1  0  0  0  0
 49 62  1  0  0  0  0
 63 64  2  0  0  0  0
 64 65  1  0  0  0  0
 65 66  2  0  0  0  0
 66 67  1  0  0  0  0
 67 68  1  0  0  0  0
 66 69  1  0  0  0  0
 69 70  2  0  0  0  0
 64 71  1  0  0  0  0
 70 71  1  0  0  0  0
 71 72  1  0  0  0  0
 72 73  1  0  0  0  0
 73 74  1  0  0  0  0
 74 75  1  0  0  0  0
 75 76  1  0  0  0  0
 74 77  1  0  0  0  0
 77 78  1  0  0  0  0
 72 79  1  0  0  0  0
 77 79  1  0  0  0  0
 79 80  1  0  0  0  0
 67 81  1  0  0  0  0
 68 82  1  0  0  0  0
 69 83  1  0  0  0  0
 70 84  1  0  0  0  0
 72 85  1  0  0  0  0
 74 86  1  0  0  0  0
 75 87  1  0  0  0  0
 75 88  1  0  0  0  0
 76 89  1  0  0  0  0
 77 90  1  0  0  0  0
 78 91  1  0  0  0  0
 79 92  1  0  0  0  0
 80 93  1  0  0  0  0
M  END
$$$$
