8FYX
  PyMOL3.1          3D                             0

 28 31  0  0  0  0  0  0  0  0999 V2000
  136.3820  129.3750  168.5700 N   0  0  0  0  0  0  0  0  0  0  0  0
  136.0420  128.1960  167.9330 C   0  0  0  0  0  0  0  0  0  0  0  0
  134.9450  128.0600  167.4090 O   0  0  0  0  0  0  0  0  0  0  0  0
  137.1000  127.1300  167.8890 C   0  0  0  0  0  0  0  0  0  0  0  0
  136.6180  133.5980  166.2740 N   0  0  0  0  0  0  0  0  0  0  0  0
  137.9160  130.6910  169.6300 O   0  0  0  0  0  0  0  0  0  0  0  0
  138.3860  127.7800  167.3370 C   0  0  0  0  0  0  0  0  0  0  0  0
  138.0340  135.9390  165.3640 N   0  0  0  0  0  0  0  0  0  0  0  0
  139.4840  126.7020  167.1730 C   0  0  0  0  0  0  0  0  0  0  0  0
  138.8700  137.2380  163.6650 N   0  0  0  0  0  0  0  0  0  0  0  0
  139.0610  125.9360  165.9200 C   0  0  0  0  0  0  0  0  0  0  0  0
  139.1680  137.8410  165.9600 N   0  0  0  0  0  0  0  0  0  0  0  0
  138.4260  127.0480  164.9760 C   0  0  0  0  0  0  0  0  0  0  0  0
  138.2410  128.2970  165.8760 C   0  0  0  0  0  0  0  0  0  0  0  0
  138.7990  128.8930  168.3240 C   0  0  0  0  0  0  0  0  0  0  0  0
  137.6930  129.7390  168.8950 C   0  0  0  0  0  0  0  0  0  0  0  0
  135.2940  130.3150  168.9060 C   0  0  0  0  0  0  0  0  0  0  0  0
  135.1600  131.4560  167.8870 C   0  0  0  0  0  0  0  0  0  0  0  0
  135.6150  132.8140  168.4530 C   0  0  0  0  0  0  0  0  0  0  0  0
  135.7140  133.9120  167.3970 C   0  0  0  0  0  0  0  0  0  0  0  0
  136.2510  134.2720  165.0030 C   0  0  0  0  0  0  0  0  0  0  0  0
  137.4390  135.0150  164.3930 C   0  0  0  0  0  0  0  0  0  0  0  0
  138.6880  137.0640  164.9800 C   0  0  0  0  0  0  0  0  0  0  0  0
  139.6470  138.2720  163.3270 C   0  0  0  0  0  0  0  0  0  0  0  0
  140.2440  139.1000  164.2470 C   0  0  0  0  0  0  0  0  0  0  0  0
  139.9470  138.8500  165.5620 C   0  0  0  0  0  0  0  0  0  0  0  0
  138.4140  135.2710  166.6120 C   0  0  0  0  0  0  0  0  0  0  0  0
  138.0450  133.7950  166.6100 C   0  0  0  0  0  0  0  0  0  0  0  0
  1  2  1  0  0  0  0
  2  3  2  0  0  0  0
  2  4  1  0  0  0  0
  4  7  1  0  0  0  0
  7  9  1  0  0  0  0
  9 11  1  0  0  0  0
 11 13  1  0  0  0  0
  7 14  1  0  0  0  0
 13 14  1  0  0  0  0
  7 15  1  0  0  0  0
  1 16  1  0  0  0  0
  6 16  2  0  0  0  0
 15 16  1  0  0  0  0
  1 17  1  0  0  0  0
 17 18  1  0  0  0  0
 18 19  1  0  0  0  0
  5 20  1  0  0  0  0
 19 20  1  0  0  0  0
  5 21  1  0  0  0  0
  8 22  1  0  0  0  0
 21 22  1  0  0  0  0
  8 23  1  0  0  0  0
 10 23  1  0  0  0  0
 12 23  2  0  0  0  0
 10 24  2  0  0  0  0
 24 25  1  0  0  0  0
 12 26  1  0  0  0  0
 25 26  2  0  0  0  0
  8 27  1  0  0  0  0
  5 28  1  0  0  0  0
 27 28  1  0  0  0  0
M  END
$$$$
