7S8O
  PyMOL3.1          3D                             0

 23 26  0  0  0  0  0  0  0  0999 V2000
  114.9020  107.5570  155.0020 C   0  0  0  0  0  0  0  0  0  0  0  0
  114.8020  106.4700  155.9790 N   0  0  0  0  0  0  0  0  0  0  0  0
  113.4780  106.6480  156.7790 C   0  0  0  0  0  0  0  0  0  0  0  0
  113.3320  105.6970  157.6820 C   0  0  0  0  0  0  0  0  0  0  0  0
  113.8080  106.2960  159.1410 N   0  0  0  0  0  0  0  0  0  0  0  0
  113.8740  105.5500  160.3490 C   0  0  0  0  0  0  0  0  0  0  0  0
  114.0330  104.1920  160.2330 C   0  0  0  0  0  0  0  0  0  0  0  0
  114.1190  103.4140  161.3320 C   0  0  0  0  0  0  0  0  0  0  0  0
  114.3020  101.8970  161.1650 C   0  0  0  0  0  0  0  0  0  0  0  0
  113.2050  101.0740  160.9480 C   0  0  0  0  0  0  0  0  0  0  0  0
  113.4030   99.6720  160.7900 C   0  0  0  0  0  0  0  0  0  0  0  0
  114.7130   99.1150  160.8540 C   0  0  0  0  0  0  0  0  0  0  0  0
  115.8090   99.9260  161.0700 C   0  0  0  0  0  0  0  0  0  0  0  0
  115.6220  101.3350  161.2260 C   0  0  0  0  0  0  0  0  0  0  0  0
  114.0520  103.9760  162.5510 N   0  0  0  0  0  0  0  0  0  0  0  0
  113.8930  105.3510  162.6590 C   0  0  0  0  0  0  0  0  0  0  0  0
  113.7920  106.1820  163.7870 C   0  0  0  0  0  0  0  0  0  0  0  0
  113.6370  107.5200  163.3180 C   0  0  0  0  0  0  0  0  0  0  0  0
  113.6470  107.4800  161.9880 N   0  0  0  0  0  0  0  0  0  0  0  0
  113.8080  106.1020  161.5890 N   0  0  0  0  0  0  0  0  0  0  0  0
  114.1590  107.5610  158.9560 C   0  0  0  0  0  0  0  0  0  0  0  0
  113.5380  107.9840  157.5890 C   0  0  0  0  0  0  0  0  0  0  0  0
  114.7520  105.1640  155.2270 C   0  0  0  0  0  0  0  0  0  0  0  0
  1  2  1  0  0  0  0
  2  3  1  0  0  0  0
  3  4  1  0  0  0  0
  4  5  1  0  0  0  0
  5  6  1  0  0  0  0
  6  7  2  0  0  0  0
  7  8  1  0  0  0  0
  8  9  1  0  0  0  0
  9 10  1  0  0  0  0
 10 11  2  0  0  0  0
 11 12  1  0  0  0  0
 12 13  2  0  0  0  0
  9 14  2  0  0  0  0
 13 14  1  0  0  0  0
  8 15  2  0  0  0  0
 15 16  1  0  0  0  0
 16 17  2  0  0  0  0
 17 18  1  0  0  0  0
 18 19  2  0  0  0  0
  6 20  1  0  0  0  0
 16 20  1  0  0  0  0
 19 20  1  0  0  0  0
  5 21  1  0  0  0  0
  3 22  1  0  0  0  0
 21 22  1  0  0  0  0
  2 23  1  0  0  0  0
M  END
$$$$
