6QU3
  PyMOL3.1          3D                             0

 19 21  0  0  0  0  0  0  0  0999 V2000
   49.2040   20.4760   82.7020 N   0  0  0  0  0  0  0  0  0  0  0  0
   48.9710   22.4890   81.7980 C   0  0  0  0  0  0  0  0  0  0  0  0
   48.7690   24.6300   80.7860 O   0  0  0  0  0  0  0  0  0  0  0  0
   53.9690   19.2920   87.1500 Cl  0  0  0  0  0  0  0  0  0  0  0  0
   54.3140   18.4420   84.1900 Cl  0  0  0  0  0  0  0  0  0  0  0  0
   48.5570   21.6290   82.9030 C   0  0  0  0  0  0  0  0  0  0  0  0
   47.5680   24.2290   82.6900 N   0  0  0  0  0  0  0  0  0  0  0  0
   49.9740   20.5160   81.5950 C   0  0  0  0  0  0  0  0  0  0  0  0
   49.8570   21.7480   81.0070 C   0  0  0  0  0  0  0  0  0  0  0  0
   49.1000   19.3240   83.5700 C   0  0  0  0  0  0  0  0  0  0  0  0
   50.3080   19.3220   84.4710 C   0  0  0  0  0  0  0  0  0  0  0  0
   51.5590   18.9510   83.9650 C   0  0  0  0  0  0  0  0  0  0  0  0
   52.6790   18.9510   84.7860 C   0  0  0  0  0  0  0  0  0  0  0  0
   52.5220   19.3200   86.1130 C   0  0  0  0  0  0  0  0  0  0  0  0
   51.2870   19.6980   86.6330 C   0  0  0  0  0  0  0  0  0  0  0  0
   50.1680   19.7060   85.8030 C   0  0  0  0  0  0  0  0  0  0  0  0
   47.6700   22.1150   83.8480 C   0  0  0  0  0  0  0  0  0  0  0  0
   47.1980   23.4200   83.7080 C   0  0  0  0  0  0  0  0  0  0  0  0
   48.4240   23.8580   81.7250 C   0  0  0  0  0  0  0  0  0  0  0  0
  1  6  1  0  0  0  0
  2  6  2  0  0  0  0
  1  8  1  0  0  0  0
  2  9  1  0  0  0  0
  8  9  2  0  0  0  0
  1 10  1  0  0  0  0
 10 11  1  0  0  0  0
 11 12  1  0  0  0  0
  5 13  1  0  0  0  0
 12 13  2  0  0  0  0
  4 14  1  0  0  0  0
 13 14  1  0  0  0  0
 14 15  2  0  0  0  0
 11 16  2  0  0  0  0
 15 16  1  0  0  0  0
  6 17  1  0  0  0  0
  7 18  2  0  0  0  0
 17 18  1  0  0  0  0
  2 19  1  0  0  0  0
  3 19  2  0  0  0  0
  7 19  1  0  0  0  0
M  END
$$$$
