6QU3
  PyMOL3.1          3D                             0

 19 21  0  0  0  0  0  0  0  0999 V2000
   41.1290  -14.1960  102.0980 N   0  0  0  0  0  0  0  0  0  0  0  0
   41.1970  -16.0910  103.2840 C   0  0  0  0  0  0  0  0  0  0  0  0
   41.2580  -18.1130  104.5200 O   0  0  0  0  0  0  0  0  0  0  0  0
   35.6880  -10.3200  102.1740 Cl  0  0  0  0  0  0  0  0  0  0  0  0
   36.1780  -12.5810  100.0150 Cl  0  0  0  0  0  0  0  0  0  0  0  0
   41.4800  -14.6470  103.3180 C   0  0  0  0  0  0  0  0  0  0  0  0
   41.9920  -16.2420  105.5830 N   0  0  0  0  0  0  0  0  0  0  0  0
   40.6600  -15.2080  101.3080 C   0  0  0  0  0  0  0  0  0  0  0  0
   40.6850  -16.3950  102.0020 C   0  0  0  0  0  0  0  0  0  0  0  0
   41.2260  -12.8010  101.6760 C   0  0  0  0  0  0  0  0  0  0  0  0
   39.8490  -12.1830  101.7860 C   0  0  0  0  0  0  0  0  0  0  0  0
   38.8060  -12.6150  100.9590 C   0  0  0  0  0  0  0  0  0  0  0  0
   37.5380  -12.0460  101.0780 C   0  0  0  0  0  0  0  0  0  0  0  0
   37.3200  -11.0490  102.0260 C   0  0  0  0  0  0  0  0  0  0  0  0
   38.3480  -10.6160  102.8560 C   0  0  0  0  0  0  0  0  0  0  0  0
   39.6160  -11.1810  102.7340 C   0  0  0  0  0  0  0  0  0  0  0  0
   42.0030  -14.0840  104.4780 C   0  0  0  0  0  0  0  0  0  0  0  0
   42.2440  -14.9080  105.5880 C   0  0  0  0  0  0  0  0  0  0  0  0
   41.4850  -16.8820  104.5070 C   0  0  0  0  0  0  0  0  0  0  0  0
  1  6  1  0  0  0  0
  2  6  2  0  0  0  0
  1  8  1  0  0  0  0
  2  9  1  0  0  0  0
  8  9  2  0  0  0  0
  1 10  1  0  0  0  0
 10 11  1  0  0  0  0
 11 12  1  0  0  0  0
  5 13  1  0  0  0  0
 12 13  2  0  0  0  0
  4 14  1  0  0  0  0
 13 14  1  0  0  0  0
 14 15  2  0  0  0  0
 11 16  2  0  0  0  0
 15 16  1  0  0  0  0
  6 17  1  0  0  0  0
  7 18  2  0  0  0  0
 17 18  1  0  0  0  0
  2 19  1  0  0  0  0
  3 19  2  0  0  0  0
  7 19  1  0  0  0  0
M  END
$$$$
