7QNC
  PyMOL3.1          3D                             0

 10 11  0  0  0  0  0  0  0  0999 V2000
  144.1440  106.6790  105.2330 N   0  0  0  0  0  0  0  0  0  0  0  0
  145.2060  106.2100  106.1130 C   0  0  0  0  0  0  0  0  0  0  0  0
  145.5270  105.0680  106.4380 O   0  0  0  0  0  0  0  0  0  0  0  0
  145.1870  108.5140  105.9740 C   0  0  0  0  0  0  0  0  0  0  0  0
  147.0200  109.8930  106.4090 N   0  0  0  0  0  0  0  0  0  0  0  0
  144.1710  108.0800  105.1790 O   0  0  0  0  0  0  0  0  0  0  0  0
  145.8240  107.4800  106.5420 C   0  0  0  0  0  0  0  0  0  0  0  0
  146.9940  107.6510  107.4710 C   0  0  0  0  0  0  0  0  0  0  0  0
  147.3480  109.1250  107.6070 C   0  0  0  0  0  0  0  0  0  0  0  0
  145.5730  109.9340  106.2090 C   0  0  0  0  0  0  0  0  0  0  0  0
  1  2  1  0  0  0  0
  2  3  2  0  0  0  0
  1  6  1  0  0  0  0
  4  6  1  0  0  0  0
  2  7  1  0  0  0  0
  4  7  2  0  0  0  0
  7  8  1  0  0  0  0
  5  9  1  0  0  0  0
  8  9  1  0  0  0  0
  4 10  1  0  0  0  0
  5 10  1  0  0  0  0
M  END
$$$$
