8WC8
  PyMOL3.1          3D                             0

 10 10  0  0  0  0  0  0  0  0999 V2000
  107.2470   98.9940  138.7220 C   0  0  0  0  0  0  0  0  0  0  0  0
  101.2340  100.7410  137.1310 N   0  0  0  0  0  0  0  0  0  0  0  0
  106.7900   99.6590  137.5950 C   0  0  0  0  0  0  0  0  0  0  0  0
  105.4280   99.7580  137.3530 C   0  0  0  0  0  0  0  0  0  0  0  0
  104.5240   99.1910  138.2380 C   0  0  0  0  0  0  0  0  0  0  0  0
  104.9820   98.5260  139.3650 C   0  0  0  0  0  0  0  0  0  0  0  0
  106.3430   98.4280  139.6070 C   0  0  0  0  0  0  0  0  0  0  0  0
  103.0240   99.3000  137.9720 C   0  0  0  0  0  0  0  0  0  0  0  0
  102.5990  100.7260  137.6250 C   0  0  0  0  0  0  0  0  0  0  0  0
  109.1530   98.8560  139.0600 Br  0  0  0  0  0  0  0  0  0  0  0  0
  1  3  1  0  0  0  0
  3  4  2  0  0  0  0
  4  5  1  0  0  0  0
  5  6  2  0  0  0  0
  1  7  2  0  0  0  0
  6  7  1  0  0  0  0
  5  8  1  0  0  0  0
  2  9  1  0  0  0  0
  8  9  1  0  0  0  0
  1 10  1  0  0  0  0
M  END
$$$$
