7CX4
  PyMOL3.1          3D                             0

 33 35  0  0  0  0  0  0  0  0999 V2000
   89.2530  112.2560  118.1300 C   0  0  0  0  0  0  0  0  0  0  0  0
   84.0920  114.5740  121.3960 N   0  0  0  0  0  0  0  0  0  0  0  0
   81.6210  114.7850  120.6510 O   0  0  0  0  0  0  0  0  0  0  0  0
   82.6060  113.7870  121.0180 S   0  0  0  0  0  0  0  0  0  0  0  0
   88.1960  112.6890  119.1580 C   0  0  0  0  0  0  0  0  0  0  0  0
   83.7010  110.7430  118.6090 N   0  0  0  0  0  0  0  0  0  0  0  0
   82.2850  112.8380  122.0630 O   0  0  0  0  0  0  0  0  0  0  0  0
   85.2360  113.8600  122.0140 C   0  0  0  0  0  0  0  0  0  0  0  0
   81.4550  117.5590  124.7850 O   0  0  0  0  0  0  0  0  0  0  0  0
   86.2710  113.4580  121.0200 C   0  0  0  0  0  0  0  0  0  0  0  0
   79.3190  119.8410  124.6940 O   0  0  0  0  0  0  0  0  0  0  0  0
   90.4810  111.6930  118.8690 C   0  0  0  0  0  0  0  0  0  0  0  0
   78.4840  118.0020  125.7390 O   0  0  0  0  0  0  0  0  0  0  0  0
   89.6800  113.4630  117.2730 C   0  0  0  0  0  0  0  0  0  0  0  0
   88.7660  111.1530  117.1650 C   0  0  0  0  0  0  0  0  0  0  0  0
   87.0580  111.9120  119.3420 C   0  0  0  0  0  0  0  0  0  0  0  0
   88.3770  113.8510  119.9030 C   0  0  0  0  0  0  0  0  0  0  0  0
   84.3120  116.0110  121.1080 C   0  0  0  0  0  0  0  0  0  0  0  0
   86.0960  112.2970  120.2740 C   0  0  0  0  0  0  0  0  0  0  0  0
   87.4140  114.2370  120.8350 C   0  0  0  0  0  0  0  0  0  0  0  0
   84.0430  116.9090  122.2800 C   0  0  0  0  0  0  0  0  0  0  0  0
   82.9620  112.8320  119.5700 C   0  0  0  0  0  0  0  0  0  0  0  0
   82.8500  116.8070  122.9960 C   0  0  0  0  0  0  0  0  0  0  0  0
   84.9920  117.8610  122.6450 C   0  0  0  0  0  0  0  0  0  0  0  0
   82.7860  113.3570  118.2970 C   0  0  0  0  0  0  0  0  0  0  0  0
   83.4130  111.5290  119.6680 C   0  0  0  0  0  0  0  0  0  0  0  0
   82.6120  117.6530  124.0790 C   0  0  0  0  0  0  0  0  0  0  0  0
   84.7520  118.7050  123.7270 C   0  0  0  0  0  0  0  0  0  0  0  0
   83.5620  118.6010  124.4440 C   0  0  0  0  0  0  0  0  0  0  0  0
   83.0700  112.5790  117.1810 C   0  0  0  0  0  0  0  0  0  0  0  0
   83.5220  111.2880  117.3900 C   0  0  0  0  0  0  0  0  0  0  0  0
   80.2390  117.7740  124.0700 C   0  0  0  0  0  0  0  0  0  0  0  0
   79.2500  118.5090  124.9340 C   0  0  0  0  0  0  0  0  0  0  0  0
  1  5  1  0  0  0  0
  1 12  1  0  0  0  0
  1 14  1  0  0  0  0
  1 15  1  0  0  0  0
  2  4  1  0  0  0  0
  3  4  2  0  0  0  0
  5 16  4  0  0  0  0
  5 17  4  0  0  0  0
  4  7  2  0  0  0  0
  2  8  1  0  0  0  0
  8 10  1  0  0  0  0
 10 19  4  0  0  0  0
 10 20  4  0  0  0  0
 16 19  4  0  0  0  0
 17 20  4  0  0  0  0
  2 18  1  0  0  0  0
 18 21  1  0  0  0  0
 21 23  4  0  0  0  0
 21 24  4  0  0  0  0
  4 22  1  0  0  0  0
 22 25  4  0  0  0  0
 22 26  4  0  0  0  0
 23 27  4  0  0  0  0
 24 28  4  0  0  0  0
 25 30  4  0  0  0  0
  6 26  4  0  0  0  0
  9 27  1  0  0  0  0
 27 29  4  0  0  0  0
 28 29  4  0  0  0  0
 30 31  4  0  0  0  0
  6 31  4  0  0  0  0
  9 32  1  0  0  0  0
 32 33  1  0  0  0  0
 11 33  4  0  0  0  0
 13 33  4  0  0  0  0
M  END
$$$$
