8W87
  PyMOL3.1          3D                             0

 11 11  0  0  0  0  0  0  0  0999 V2000
  103.4910  105.3210  140.4260 N   0  0  0  0  0  0  0  0  0  0  0  0
  103.9370  106.6830  140.3170 C   0  0  0  0  0  0  0  0  0  0  0  0
  102.6680  107.5070  140.4710 C   0  0  0  0  0  0  0  0  0  0  0  0
  104.8990  106.9750  141.4610 C   0  0  0  0  0  0  0  0  0  0  0  0
  106.1220  107.7200  140.9350 C   0  0  0  0  0  0  0  0  0  0  0  0
  106.8530  108.5310  141.7820 C   0  0  0  0  0  0  0  0  0  0  0  0
  106.5020  107.5850  139.6130 C   0  0  0  0  0  0  0  0  0  0  0  0
  107.9640  109.2060  141.3060 C   0  0  0  0  0  0  0  0  0  0  0  0
  107.6120  108.2570  139.1330 C   0  0  0  0  0  0  0  0  0  0  0  0
  108.3430  109.0660  139.9830 C   0  0  0  0  0  0  0  0  0  0  0  0
  102.2540  105.4100  141.1770 C   0  0  0  0  0  0  0  0  0  0  0  0
  1  2  1  0  0  0  0
  2  3  1  0  0  0  0
  2  4  1  0  0  0  0
  4  5  1  0  0  0  0
  5  6  1  0  0  0  0
  5  7  2  0  0  0  0
  6  8  2  0  0  0  0
  7  9  1  0  0  0  0
  8 10  1  0  0  0  0
  9 10  2  0  0  0  0
  1 11  1  0  0  0  0
M  END
$$$$
