8E23
  PyMOL3.1          3D                             0

 23 25  0  0  0  0  0  0  0  0999 V2000
   25.4870    6.2950   68.7820 C   0  0  0  0  0  0  0  0  0  0  0  0
   25.3630    6.3360   67.2850 N   0  0  0  0  0  0  0  0  0  0  0  0
   25.1280    5.0930   66.5770 C   0  0  0  0  0  0  0  0  0  0  0  0
   25.2420    3.6730   67.2650 S   0  0  0  0  0  0  0  0  0  0  0  0
   24.7390    5.1100   65.0380 C   0  0  0  0  0  0  0  0  0  0  0  0
   25.2220    3.8830   64.2050 N   0  0  0  0  0  0  0  0  0  0  0  0
   24.3700    2.9060   63.7250 N   0  0  0  0  0  0  0  0  0  0  0  0
   25.1280    1.9800   63.0400 C   0  0  0  0  0  0  0  0  0  0  0  0
   24.9450    0.6710   62.2550 C   0  0  0  0  0  0  0  0  0  0  0  0
   26.3780    0.2130   61.8590 C   0  0  0  0  0  0  0  0  0  0  0  0
   27.3290    1.3490   62.3330 C   0  0  0  0  0  0  0  0  0  0  0  0
   26.5040    2.3660   63.0800 C   0  0  0  0  0  0  0  0  0  0  0  0
   26.5520    3.5610   63.8140 C   0  0  0  0  0  0  0  0  0  0  0  0
   27.7510    4.4200   64.1750 C   0  0  0  0  0  0  0  0  0  0  0  0
   25.4960    7.6720   66.6250 C   0  0  0  0  0  0  0  0  0  0  0  0
   26.7870    8.2180   66.3780 C   0  0  0  0  0  0  0  0  0  0  0  0
   26.9520    9.4720   65.7580 C   0  0  0  0  0  0  0  0  0  0  0  0
   25.8370   10.2260   65.3600 C   0  0  0  0  0  0  0  0  0  0  0  0
   24.5560    9.7100   65.5920 C   0  0  0  0  0  0  0  0  0  0  0  0
   24.3890    8.4540   66.2130 C   0  0  0  0  0  0  0  0  0  0  0  0
   27.9410    4.6350   65.4870 F   0  0  0  0  0  0  0  0  0  0  0  0
   28.9090    3.8710   63.7610 F   0  0  0  0  0  0  0  0  0  0  0  0
   27.7850    5.6670   63.6570 F   0  0  0  0  0  0  0  0  0  0  0  0
  1  2  1  0  0  0  0
  2  3  1  0  0  0  0
  3  4  2  0  0  0  0
  3  5  1  0  0  0  0
  5  6  1  0  0  0  0
  6  7  1  0  0  0  0
  7  8  1  0  0  0  0
  8  9  2  0  0  0  0
  9 10  1  0  0  0  0
 10 11  2  0  0  0  0
  8 12  1  0  0  0  0
 11 12  1  0  0  0  0
  6 13  1  0  0  0  0
 12 13  2  0  0  0  0
 13 14  1  0  0  0  0
  2 15  1  0  0  0  0
 15 16  1  0  0  0  0
 16 17  2  0  0  0  0
 17 18  1  0  0  0  0
 18 19  2  0  0  0  0
 15 20  2  0  0  0  0
 19 20  1  0  0  0  0
 14 21  1  0  0  0  0
 14 22  1  0  0  0  0
 14 23  1  0  0  0  0
M  END
$$$$
