7M93
  PyMOL3.1          3D                             0

108120  0  0  0  0  0  0  0  0999 V2000
   -2.6516  -23.9184   30.3556 N   0  0  0  0  0  0  0  0  0  0  0  0
   -4.6981  -34.6899   32.0286 C   0  0  0  0  0  0  0  0  0  0  0  0
   -4.9149  -33.3112   32.3017 O   0  0  0  0  0  0  0  0  0  0  0  0
   -4.0265  -32.4194   31.7728 C   0  0  0  0  0  0  0  0  0  0  0  0
   -1.0282  -21.5781   29.9707 N   0  0  0  0  0  0  0  0  0  0  0  0
   -4.2808  -31.0787   32.0788 C   0  0  0  0  0  0  0  0  0  0  0  0
   -5.4883  -30.7544   32.9296 C   0  0  0  0  0  0  0  0  0  0  0  0
   -5.4518  -29.3706   33.5161 C   0  0  0  0  0  0  0  0  0  0  0  0
   -5.0485  -28.3663   32.4474 C   0  0  0  0  0  0  0  0  0  0  0  0
   -3.6281  -28.6298   31.9482 C   0  0  0  0  0  0  0  0  0  0  0  0
   -3.3292  -27.6926   30.7670 C   0  0  0  0  0  0  0  0  0  0  0  0
   -3.1619  -26.2260   31.1457 C   0  0  0  0  0  0  0  0  0  0  0  0
   -3.0403  -25.2793   29.9669 C   0  0  0  0  0  0  0  0  0  0  0  0
   -1.2328  -23.8821   30.7277 C   0  0  0  0  0  0  0  0  0  0  0  0
   -0.8134  -22.4779   31.1081 C   0  0  0  0  0  0  0  0  0  0  0  0
   -0.4654  -20.2341   30.1746 C   0  0  0  0  0  0  0  0  0  0  0  0
   -0.9478  -19.1976   29.1708 C   0  0  0  0  0  0  0  0  0  0  0  0
   -0.1517  -17.9083   29.3132 C   0  0  0  0  0  0  0  0  0  0  0  0
   -0.2383  -17.3742   30.7280 C   0  0  0  0  0  0  0  0  0  0  0  0
    0.2387  -18.4092   31.7272 C   0  0  0  0  0  0  0  0  0  0  0  0
   -0.5600  -19.6980   31.5944 C   0  0  0  0  0  0  0  0  0  0  0  0
   -2.4584  -21.5698   29.6517 C   0  0  0  0  0  0  0  0  0  0  0  0
   -2.9026  -22.9682   29.2639 C   0  0  0  0  0  0  0  0  0  0  0  0
   -3.4202  -30.0851   31.5821 C   0  0  0  0  0  0  0  0  0  0  0  0
   -2.3430  -30.4605   30.7849 C   0  0  0  0  0  0  0  0  0  0  0  0
   -2.1085  -31.7933   30.4931 C   0  0  0  0  0  0  0  0  0  0  0  0
   -2.9445  -32.7788   30.9862 C   0  0  0  0  0  0  0  0  0  0  0  0
   -1.8163    8.9230   27.4526 N   0  0  0  0  0  0  0  0  0  0  0  0
   -0.4279   19.3429   24.8424 C   0  0  0  0  0  0  0  0  0  0  0  0
   -0.3238   17.9331   24.6764 O   0  0  0  0  0  0  0  0  0  0  0  0
   -1.2526   17.1528   25.3045 C   0  0  0  0  0  0  0  0  0  0  0  0
   -1.3262    6.4648   28.8424 N   0  0  0  0  0  0  0  0  0  0  0  0
   -1.0201   15.7783   25.2240 C   0  0  0  0  0  0  0  0  0  0  0  0
    0.1609   15.2672   24.4305 C   0  0  0  0  0  0  0  0  0  0  0  0
   -0.0315   13.8731   23.8042 C   0  0  0  0  0  0  0  0  0  0  0  0
   -1.2960   13.1707   24.3052 C   0  0  0  0  0  0  0  0  0  0  0  0
   -1.5261   13.4296   25.7929 C   0  0  0  0  0  0  0  0  0  0  0  0
   -2.5662   12.5259   26.4744 C   0  0  0  0  0  0  0  0  0  0  0  0
   -1.9586   11.4044   27.3129 C   0  0  0  0  0  0  0  0  0  0  0  0
   -2.6673   10.0791   27.1549 C   0  0  0  0  0  0  0  0  0  0  0  0
   -2.5340    7.6887   27.1326 C   0  0  0  0  0  0  0  0  0  0  0  0
   -1.6745    6.4871   27.4200 C   0  0  0  0  0  0  0  0  0  0  0  0
   -0.6563    5.2164   29.2283 C   0  0  0  0  0  0  0  0  0  0  0  0
    0.2158    5.3484   30.4685 C   0  0  0  0  0  0  0  0  0  0  0  0
    0.9170    4.0295   30.7680 C   0  0  0  0  0  0  0  0  0  0  0  0
   -0.0879    2.9082   30.9430 C   0  0  0  0  0  0  0  0  0  0  0  0
   -0.9686    2.7764   29.7148 C   0  0  0  0  0  0  0  0  0  0  0  0
   -1.6696    4.0913   29.3955 C   0  0  0  0  0  0  0  0  0  0  0  0
   -0.5716    7.6808   29.1686 C   0  0  0  0  0  0  0  0  0  0  0  0
   -1.4142    8.9056   28.8650 C   0  0  0  0  0  0  0  0  0  0  0  0
   -1.8840   14.8938   25.8645 C   0  0  0  0  0  0  0  0  0  0  0  0
   -2.9921   15.3917   26.5418 C   0  0  0  0  0  0  0  0  0  0  0  0
   -3.2202   16.7556   26.6033 C   0  0  0  0  0  0  0  0  0  0  0  0
   -2.3488   17.6442   25.9952 C   0  0  0  0  0  0  0  0  0  0  0  0
   32.3933    5.6546   15.6573 N   0  0  0  0  0  0  0  0  0  0  0  0
   35.4716   -4.5087   13.8805 C   0  0  0  0  0  0  0  0  0  0  0  0
   35.3850   -3.0896   13.7939 O   0  0  0  0  0  0  0  0  0  0  0  0
   34.3939   -2.4786   14.5068 C   0  0  0  0  0  0  0  0  0  0  0  0
   30.7066    7.9752   15.8878 N   0  0  0  0  0  0  0  0  0  0  0  0
   34.3124   -1.0912   14.3424 C   0  0  0  0  0  0  0  0  0  0  0  0
   35.3769   -0.4039   13.5166 C   0  0  0  0  0  0  0  0  0  0  0  0
   35.0596    1.0318   13.1725 C   0  0  0  0  0  0  0  0  0  0  0  0
   34.4524    1.7416   14.3732 C   0  0  0  0  0  0  0  0  0  0  0  0
   33.1219    1.1077   14.7759 C   0  0  0  0  0  0  0  0  0  0  0  0
   32.5517    1.7975   16.0271 C   0  0  0  0  0  0  0  0  0  0  0  0
   31.9333    3.1779   15.7994 C   0  0  0  0  0  0  0  0  0  0  0  0
   32.8790    4.3355   16.0886 C   0  0  0  0  0  0  0  0  0  0  0  0
   30.9788    5.6236   15.2640 C   0  0  0  0  0  0  0  0  0  0  0  0
   30.5170    6.9988   14.8079 C   0  0  0  0  0  0  0  0  0  0  0  0
   30.1610    9.3071   15.5814 C   0  0  0  0  0  0  0  0  0  0  0  0
   30.4606   10.3498   16.6519 C   0  0  0  0  0  0  0  0  0  0  0  0
   29.7519   11.6628   16.3453 C   0  0  0  0  0  0  0  0  0  0  0  0
   30.1304   12.1709   14.9729 C   0  0  0  0  0  0  0  0  0  0  0  0
   29.8179   11.1336   13.9104 C   0  0  0  0  0  0  0  0  0  0  0  0
   30.5338    9.8215   14.2008 C   0  0  0  0  0  0  0  0  0  0  0  0
   32.1273    8.0167   16.2497 C   0  0  0  0  0  0  0  0  0  0  0  0
   32.5813    6.6497   16.7172 C   0  0  0  0  0  0  0  0  0  0  0  0
   33.2873   -0.3826   14.9918 C   0  0  0  0  0  0  0  0  0  0  0  0
   32.4013   -1.0759   15.8108 C   0  0  0  0  0  0  0  0  0  0  0  0
   32.5124   -2.4457   15.9765 C   0  0  0  0  0  0  0  0  0  0  0  0
   33.5034   -3.1548   15.3230 C   0  0  0  0  0  0  0  0  0  0  0  0
   31.4271   39.3245   18.6545 N   0  0  0  0  0  0  0  0  0  0  0  0
   29.3337   48.6057   22.5912 C   0  0  0  0  0  0  0  0  0  0  0  0
   30.3310   47.9067   21.8491 O   0  0  0  0  0  0  0  0  0  0  0  0
   30.1531   46.5647   21.6640 C   0  0  0  0  0  0  0  0  0  0  0  0
   31.1580   36.8539   17.1894 N   0  0  0  0  0  0  0  0  0  0  0  0
   31.1353   45.9346   20.8897 C   0  0  0  0  0  0  0  0  0  0  0  0
   32.3199   46.7424   20.4145 C   0  0  0  0  0  0  0  0  0  0  0  0
   33.4909   45.8687   20.0761 C   0  0  0  0  0  0  0  0  0  0  0  0
   33.0575   44.7857   19.0984 C   0  0  0  0  0  0  0  0  0  0  0  0
   32.0159   43.8506   19.7195 C   0  0  0  0  0  0  0  0  0  0  0  0
   31.3207   43.1662   18.5305 C   0  0  0  0  0  0  0  0  0  0  0  0
   30.8218   41.7422   18.7637 C   0  0  0  0  0  0  0  0  0  0  0  0
   31.9167   40.6942   18.8543 C   0  0  0  0  0  0  0  0  0  0  0  0
   32.5343   38.3714   18.5496 C   0  0  0  0  0  0  0  0  0  0  0  0
   32.0040   36.9570   18.3861 C   0  0  0  0  0  0  0  0  0  0  0  0
   30.6698   35.4844   16.9597 C   0  0  0  0  0  0  0  0  0  0  0  0
   29.6292   35.4098   15.8484 C   0  0  0  0  0  0  0  0  0  0  0  0
   29.1016   33.9872   15.6919 C   0  0  0  0  0  0  0  0  0  0  0  0
   30.2316   33.0136   15.4368 C   0  0  0  0  0  0  0  0  0  0  0  0
   31.2562   33.0816   16.5507 C   0  0  0  0  0  0  0  0  0  0  0  0
   31.8023   34.4969   16.7119 C   0  0  0  0  0  0  0  0  0  0  0  0
   30.0626   37.8275   17.2813 C   0  0  0  0  0  0  0  0  0  0  0  0
   30.6105   39.2304   17.4423 C   0  0  0  0  0  0  0  0  0  0  0  0
   31.0125   44.5644   20.6045 C   0  0  0  0  0  0  0  0  0  0  0  0
   29.9304   43.8618   21.1246 C   0  0  0  0  0  0  0  0  0  0  0  0
   28.9783   44.4979   21.8999 C   0  0  0  0  0  0  0  0  0  0  0  0
   29.0804   45.8504   22.1708 C   0  0  0  0  0  0  0  0  0  0  0  0
  2  3  1  0  0  0  0
  3  4  1  0  0  0  0
  4  6  1  0  0  0  0
  6  7  1  0  0  0  0
  7  8  1  0  0  0  0
  8  9  1  0  0  0  0
  9 10  1  0  0  0  0
 10 11  1  0  0  0  0
 11 12  1  0  0  0  0
  1 13  1  0  0  0  0
 12 13  1  0  0  0  0
  1 14  1  0  0  0  0
  5 15  1  0  0  0  0
 14 15  1  0  0  0  0
  5 16  1  0  0  0  0
 16 17  1  0  0  0  0
 17 18  1  0  0  0  0
 18 19  1  0  0  0  0
 19 20  1  0  0  0  0
 16 21  1  0  0  0  0
 20 21  1  0  0  0  0
  5 22  1  0  0  0  0
  1 23  1  0  0  0  0
 22 23  1  0  0  0  0
  6 24  2  0  0  0  0
 10 24  1  0  0  0  0
 24 25  1  0  0  0  0
 25 26  2  0  0  0  0
  4 27  2  0  0  0  0
 26 27  1  0  0  0  0
 29 30  1  0  0  0  0
 30 31  1  0  0  0  0
 31 33  1  0  0  0  0
 33 34  1  0  0  0  0
 34 35  1  0  0  0  0
 35 36  1  0  0  0  0
 36 37  1  0  0  0  0
 37 38  1  0  0  0  0
 38 39  1  0  0  0  0
 28 40  1  0  0  0  0
 39 40  1  0  0  0  0
 28 41  1  0  0  0  0
 32 42  1  0  0  0  0
 41 42  1  0  0  0  0
 32 43  1  0  0  0  0
 43 44  1  0  0  0  0
 44 45  1  0  0  0  0
 45 46  1  0  0  0  0
 46 47  1  0  0  0  0
 43 48  1  0  0  0  0
 47 48  1  0  0  0  0
 32 49  1  0  0  0  0
 28 50  1  0  0  0  0
 49 50  1  0  0  0  0
 33 51  2  0  0  0  0
 37 51  1  0  0  0  0
 51 52  1  0  0  0  0
 52 53  2  0  0  0  0
 31 54  2  0  0  0  0
 53 54  1  0  0  0  0
 56 57  1  0  0  0  0
 57 58  1  0  0  0  0
 58 60  1  0  0  0  0
 60 61  1  0  0  0  0
 61 62  1  0  0  0  0
 62 63  1  0  0  0  0
 63 64  1  0  0  0  0
 64 65  1  0  0  0  0
 65 66  1  0  0  0  0
 55 67  1  0  0  0  0
 66 67  1  0  0  0  0
 55 68  1  0  0  0  0
 59 69  1  0  0  0  0
 68 69  1  0  0  0  0
 59 70  1  0  0  0  0
 70 71  1  0  0  0  0
 71 72  1  0  0  0  0
 72 73  1  0  0  0  0
 73 74  1  0  0  0  0
 70 75  1  0  0  0  0
 74 75  1  0  0  0  0
 59 76  1  0  0  0  0
 55 77  1  0  0  0  0
 76 77  1  0  0  0  0
 60 78  2  0  0  0  0
 64 78  1  0  0  0  0
 78 79  1  0  0  0  0
 79 80  2  0  0  0  0
 58 81  2  0  0  0  0
 80 81  1  0  0  0  0
 83 84  1  0  0  0  0
 84 85  1  0  0  0  0
 85 87  1  0  0  0  0
 87 88  1  0  0  0  0
 88 89  1  0  0  0  0
 89 90  1  0  0  0  0
 90 91  1  0  0  0  0
 91 92  1  0  0  0  0
 92 93  1  0  0  0  0
 82 94  1  0  0  0  0
 93 94  1  0  0  0  0
 82 95  1  0  0  0  0
 86 96  1  0  0  0  0
 95 96  1  0  0  0  0
 86 97  1  0  0  0  0
 97 98  1  0  0  0  0
 98 99  1  0  0  0  0
 99100  1  0  0  0  0
100101  1  0  0  0  0
 97102  1  0  0  0  0
101102  1  0  0  0  0
 86103  1  0  0  0  0
 82104  1  0  0  0  0
103104  1  0  0  0  0
 87105  2  0  0  0  0
 91105  1  0  0  0  0
105106  1  0  0  0  0
106107  2  0  0  0  0
 85108  2  0  0  0  0
107108  1  0  0  0  0
M  END
$$$$
