6UZ8
  PyMOL3.1          3D                             0

108124  0  0  0  0  0  0  0  0999 V2000
  167.2120  141.0210  131.5600 Cl  0  0  0  0  0  0  0  0  0  0  0  0
  168.4610  141.3620  130.4240 C   0  0  0  0  0  0  0  0  0  0  0  0
  168.6730  140.4500  129.4140 C   0  0  0  0  0  0  0  0  0  0  0  0
  169.6750  140.7000  128.4840 C   0  0  0  0  0  0  0  0  0  0  0  0
  170.4220  141.8700  128.6180 C   0  0  0  0  0  0  0  0  0  0  0  0
  171.4510  142.3130  127.8220 N   0  0  0  0  0  0  0  0  0  0  0  0
  172.0900  143.5010  128.4010 C   0  0  0  0  0  0  0  0  0  0  0  0
  171.1490  143.9730  129.5540 C   0  0  0  0  0  0  0  0  0  0  0  0
  171.9430  144.1930  130.8440 C   0  0  0  0  0  0  0  0  0  0  0  0
  172.6940  145.5410  130.9380 C   0  0  0  0  0  0  0  0  0  0  0  0
  171.8170  146.7110  130.6610 N   0  0  0  0  0  0  0  0  0  0  0  0
  171.6490  147.7970  131.5390 C   0  0  0  0  0  0  0  0  0  0  0  0
  172.3880  147.8820  132.8970 C   0  0  0  0  0  0  0  0  0  0  0  0
  172.2200  149.2750  133.5370 C   0  0  0  0  0  0  0  0  0  0  0  0
  173.0000  149.3540  134.7280 O   0  0  0  0  0  0  0  0  0  0  0  0
  172.9360  148.2590  135.5560 C   0  0  0  0  0  0  0  0  0  0  0  0
  173.4730  148.4040  136.8290 C   0  0  0  0  0  0  0  0  0  0  0  0
  173.4330  147.3200  137.6910 C   0  0  0  0  0  0  0  0  0  0  0  0
  172.8590  146.1200  137.2700 C   0  0  0  0  0  0  0  0  0  0  0  0
  172.3220  145.9840  135.9910 C   0  0  0  0  0  0  0  0  0  0  0  0
  172.3580  147.0690  135.1100 C   0  0  0  0  0  0  0  0  0  0  0  0
  171.8300  146.9460  133.8350 O   0  0  0  0  0  0  0  0  0  0  0  0
  170.9030  148.7040  131.2150 O   0  0  0  0  0  0  0  0  0  0  0  0
  171.1410  146.5760  129.3650 C   0  0  0  0  0  0  0  0  0  0  0  0
  170.3800  145.2460  129.2230 C   0  0  0  0  0  0  0  0  0  0  0  0
  170.1950  142.7990  129.6630 C   0  0  0  0  0  0  0  0  0  0  0  0
  169.1980  142.5360  130.5730 C   0  0  0  0  0  0  0  0  0  0  0  0
  141.0210  162.2620  131.5620 Cl  0  0  0  0  0  0  0  0  0  0  0  0
  141.3620  161.0120  130.4250 C   0  0  0  0  0  0  0  0  0  0  0  0
  140.4490  160.8010  129.4150 C   0  0  0  0  0  0  0  0  0  0  0  0
  140.6990  159.7990  128.4850 C   0  0  0  0  0  0  0  0  0  0  0  0
  141.8690  159.0510  128.6190 C   0  0  0  0  0  0  0  0  0  0  0  0
  142.3120  158.0230  127.8230 N   0  0  0  0  0  0  0  0  0  0  0  0
  143.5000  157.3830  128.4020 C   0  0  0  0  0  0  0  0  0  0  0  0
  143.9720  158.3240  129.5550 C   0  0  0  0  0  0  0  0  0  0  0  0
  144.1920  157.5300  130.8450 C   0  0  0  0  0  0  0  0  0  0  0  0
  145.5400  156.7790  130.9390 C   0  0  0  0  0  0  0  0  0  0  0  0
  146.7100  157.6560  130.6620 N   0  0  0  0  0  0  0  0  0  0  0  0
  147.7970  157.8240  131.5390 C   0  0  0  0  0  0  0  0  0  0  0  0
  147.8820  157.0840  132.8970 C   0  0  0  0  0  0  0  0  0  0  0  0
  149.2750  157.2520  133.5370 C   0  0  0  0  0  0  0  0  0  0  0  0
  149.3540  156.4720  134.7280 O   0  0  0  0  0  0  0  0  0  0  0  0
  148.2590  156.5360  135.5560 C   0  0  0  0  0  0  0  0  0  0  0  0
  148.4040  155.9990  136.8290 C   0  0  0  0  0  0  0  0  0  0  0  0
  147.3200  156.0400  137.6920 C   0  0  0  0  0  0  0  0  0  0  0  0
  146.1200  156.6140  137.2710 C   0  0  0  0  0  0  0  0  0  0  0  0
  145.9840  157.1510  135.9920 C   0  0  0  0  0  0  0  0  0  0  0  0
  147.0690  157.1140  135.1110 C   0  0  0  0  0  0  0  0  0  0  0  0
  146.9460  157.6420  133.8360 O   0  0  0  0  0  0  0  0  0  0  0  0
  148.7040  158.5700  131.2150 O   0  0  0  0  0  0  0  0  0  0  0  0
  146.5750  158.3320  129.3660 C   0  0  0  0  0  0  0  0  0  0  0  0
  145.2450  159.0930  129.2240 C   0  0  0  0  0  0  0  0  0  0  0  0
  142.7980  159.2780  129.6640 C   0  0  0  0  0  0  0  0  0  0  0  0
  142.5360  160.2750  130.5740 C   0  0  0  0  0  0  0  0  0  0  0  0
  188.4490  167.2100  131.5620 Cl  0  0  0  0  0  0  0  0  0  0  0  0
  188.1080  168.4590  130.4250 C   0  0  0  0  0  0  0  0  0  0  0  0
  189.0200  168.6700  129.4150 C   0  0  0  0  0  0  0  0  0  0  0  0
  188.7700  169.6720  128.4850 C   0  0  0  0  0  0  0  0  0  0  0  0
  187.6000  170.4200  128.6190 C   0  0  0  0  0  0  0  0  0  0  0  0
  187.1570  171.4480  127.8230 N   0  0  0  0  0  0  0  0  0  0  0  0
  185.9690  172.0880  128.4020 C   0  0  0  0  0  0  0  0  0  0  0  0
  185.4970  171.1470  129.5550 C   0  0  0  0  0  0  0  0  0  0  0  0
  185.2770  171.9410  130.8450 C   0  0  0  0  0  0  0  0  0  0  0  0
  183.9290  172.6920  130.9390 C   0  0  0  0  0  0  0  0  0  0  0  0
  182.7590  171.8150  130.6620 N   0  0  0  0  0  0  0  0  0  0  0  0
  181.6730  171.6470  131.5400 C   0  0  0  0  0  0  0  0  0  0  0  0
  181.5880  172.3870  132.8980 C   0  0  0  0  0  0  0  0  0  0  0  0
  180.1950  172.2190  133.5380 C   0  0  0  0  0  0  0  0  0  0  0  0
  180.1160  172.9990  134.7290 O   0  0  0  0  0  0  0  0  0  0  0  0
  181.2110  172.9350  135.5570 C   0  0  0  0  0  0  0  0  0  0  0  0
  181.0660  173.4720  136.8300 C   0  0  0  0  0  0  0  0  0  0  0  0
  182.1500  173.4320  137.6920 C   0  0  0  0  0  0  0  0  0  0  0  0
  183.3500  172.8580  137.2710 C   0  0  0  0  0  0  0  0  0  0  0  0
  183.4860  172.3210  135.9920 C   0  0  0  0  0  0  0  0  0  0  0  0
  182.4010  172.3570  135.1110 C   0  0  0  0  0  0  0  0  0  0  0  0
  182.5240  171.8290  133.8360 O   0  0  0  0  0  0  0  0  0  0  0  0
  180.7660  170.9010  131.2160 O   0  0  0  0  0  0  0  0  0  0  0  0
  182.8940  171.1390  129.3660 C   0  0  0  0  0  0  0  0  0  0  0  0
  184.2240  170.3780  129.2240 C   0  0  0  0  0  0  0  0  0  0  0  0
  186.6710  170.1930  129.6640 C   0  0  0  0  0  0  0  0  0  0  0  0
  186.9340  169.1960  130.5740 C   0  0  0  0  0  0  0  0  0  0  0  0
  162.2600  188.4510  131.5610 Cl  0  0  0  0  0  0  0  0  0  0  0  0
  161.0110  188.1100  130.4240 C   0  0  0  0  0  0  0  0  0  0  0  0
  160.8000  189.0220  129.4140 C   0  0  0  0  0  0  0  0  0  0  0  0
  159.7980  188.7720  128.4840 C   0  0  0  0  0  0  0  0  0  0  0  0
  159.0500  187.6020  128.6180 C   0  0  0  0  0  0  0  0  0  0  0  0
  158.0220  187.1590  127.8220 N   0  0  0  0  0  0  0  0  0  0  0  0
  157.3820  185.9710  128.4010 C   0  0  0  0  0  0  0  0  0  0  0  0
  158.3230  185.4990  129.5540 C   0  0  0  0  0  0  0  0  0  0  0  0
  157.5290  185.2790  130.8440 C   0  0  0  0  0  0  0  0  0  0  0  0
  156.7780  183.9310  130.9380 C   0  0  0  0  0  0  0  0  0  0  0  0
  157.6550  182.7610  130.6610 N   0  0  0  0  0  0  0  0  0  0  0  0
  157.8230  181.6750  131.5390 C   0  0  0  0  0  0  0  0  0  0  0  0
  157.0840  181.5900  132.8970 C   0  0  0  0  0  0  0  0  0  0  0  0
  157.2520  180.1970  133.5370 C   0  0  0  0  0  0  0  0  0  0  0  0
  156.4720  180.1180  134.7280 O   0  0  0  0  0  0  0  0  0  0  0  0
  156.5360  181.2130  135.5560 C   0  0  0  0  0  0  0  0  0  0  0  0
  155.9990  181.0680  136.8290 C   0  0  0  0  0  0  0  0  0  0  0  0
  156.0390  182.1520  137.6910 C   0  0  0  0  0  0  0  0  0  0  0  0
  156.6130  183.3520  137.2700 C   0  0  0  0  0  0  0  0  0  0  0  0
  157.1500  183.4880  135.9910 C   0  0  0  0  0  0  0  0  0  0  0  0
  157.1140  182.4030  135.1100 C   0  0  0  0  0  0  0  0  0  0  0  0
  157.6420  182.5260  133.8350 O   0  0  0  0  0  0  0  0  0  0  0  0
  158.5690  180.7680  131.2150 O   0  0  0  0  0  0  0  0  0  0  0  0
  158.3310  182.8960  129.3650 C   0  0  0  0  0  0  0  0  0  0  0  0
  159.0920  184.2260  129.2230 C   0  0  0  0  0  0  0  0  0  0  0  0
  159.2770  186.6730  129.6630 C   0  0  0  0  0  0  0  0  0  0  0  0
  160.2740  186.9360  130.5730 C   0  0  0  0  0  0  0  0  0  0  0  0
  1  2  1  0  0  0  0
  2  3  4  0  0  0  0
  2 27  4  0  0  0  0
  3  4  4  0  0  0  0
  4  5  4  0  0  0  0
  5  6  1  0  0  0  0
  6  7  1  0  0  0  0
  7  8  1  0  0  0  0
  8  9  1  0  0  0  0
  8 25  1  0  0  0  0
  9 10  1  0  0  0  0
 10 11  1  0  0  0  0
 11 12  1  0  0  0  0
 12 23  2  0  0  0  0
 12 13  1  0  0  0  0
 13 14  1  0  0  0  0
 13 22  1  0  0  0  0
 14 15  1  0  0  0  0
 15 16  1  0  0  0  0
 16 17  4  0  0  0  0
 17 18  4  0  0  0  0
 18 19  4  0  0  0  0
 19 20  4  0  0  0  0
 20 21  4  0  0  0  0
 16 21  4  0  0  0  0
 21 22  1  0  0  0  0
 11 24  1  0  0  0  0
 24 25  1  0  0  0  0
  5 26  4  0  0  0  0
  8 26  1  0  0  0  0
 26 27  4  0  0  0  0
 28 29  1  0  0  0  0
 29 30  4  0  0  0  0
 29 54  4  0  0  0  0
 30 31  4  0  0  0  0
 31 32  4  0  0  0  0
 32 33  1  0  0  0  0
 33 34  1  0  0  0  0
 34 35  1  0  0  0  0
 35 36  1  0  0  0  0
 35 52  1  0  0  0  0
 36 37  1  0  0  0  0
 37 38  1  0  0  0  0
 38 39  1  0  0  0  0
 39 50  2  0  0  0  0
 39 40  1  0  0  0  0
 40 41  1  0  0  0  0
 40 49  1  0  0  0  0
 41 42  1  0  0  0  0
 42 43  1  0  0  0  0
 43 44  4  0  0  0  0
 44 45  4  0  0  0  0
 45 46  4  0  0  0  0
 46 47  4  0  0  0  0
 47 48  4  0  0  0  0
 43 48  4  0  0  0  0
 48 49  1  0  0  0  0
 38 51  1  0  0  0  0
 51 52  1  0  0  0  0
 32 53  4  0  0  0  0
 35 53  1  0  0  0  0
 53 54  4  0  0  0  0
 55 56  1  0  0  0  0
 56 57  4  0  0  0  0
 56 81  4  0  0  0  0
 57 58  4  0  0  0  0
 58 59  4  0  0  0  0
 59 60  1  0  0  0  0
 60 61  1  0  0  0  0
 61 62  1  0  0  0  0
 62 63  1  0  0  0  0
 62 79  1  0  0  0  0
 63 64  1  0  0  0  0
 64 65  1  0  0  0  0
 65 66  1  0  0  0  0
 66 77  2  0  0  0  0
 66 67  1  0  0  0  0
 67 68  1  0  0  0  0
 67 76  1  0  0  0  0
 68 69  1  0  0  0  0
 69 70  1  0  0  0  0
 70 71  4  0  0  0  0
 71 72  4  0  0  0  0
 72 73  4  0  0  0  0
 73 74  4  0  0  0  0
 74 75  4  0  0  0  0
 70 75  4  0  0  0  0
 75 76  1  0  0  0  0
 65 78  1  0  0  0  0
 78 79  1  0  0  0  0
 59 80  4  0  0  0  0
 62 80  1  0  0  0  0
 80 81  4  0  0  0  0
 82 83  1  0  0  0  0
 83 84  4  0  0  0  0
 83108  4  0  0  0  0
 84 85  4  0  0  0  0
 85 86  4  0  0  0  0
 86 87  1  0  0  0  0
 87 88  1  0  0  0  0
 88 89  1  0  0  0  0
 89 90  1  0  0  0  0
 89106  1  0  0  0  0
 90 91  1  0  0  0  0
 91 92  1  0  0  0  0
 92 93  1  0  0  0  0
 93104  2  0  0  0  0
 93 94  1  0  0  0  0
 94 95  1  0  0  0  0
 94103  1  0  0  0  0
 95 96  1  0  0  0  0
 96 97  1  0  0  0  0
 97 98  4  0  0  0  0
 98 99  4  0  0  0  0
 99100  4  0  0  0  0
100101  4  0  0  0  0
101102  4  0  0  0  0
 97102  4  0  0  0  0
102103  1  0  0  0  0
 92105  1  0  0  0  0
105106  1  0  0  0  0
 86107  4  0  0  0  0
 89107  1  0  0  0  0
107108  4  0  0  0  0
M  END
$$$$
