7LPP
  PyMOL3.1          3D                             0

 92100  0  0  0  0  0  0  0  0999 V2000
    4.4220    4.5930   66.7360 C   0  0  0  0  0  0  0  0  0  0  0  0
    3.8440    4.3040   68.1240 C   0  0  0  0  0  0  0  0  0  0  0  0
    4.5710    4.6180   69.2640 C   0  0  0  0  0  0  0  0  0  0  0  0
    4.0410    4.3540   70.5180 C   0  0  0  0  0  0  0  0  0  0  0  0
    2.7840    3.7790   70.6320 C   0  0  0  0  0  0  0  0  0  0  0  0
    2.0560    3.4670   69.4950 C   0  0  0  0  0  0  0  0  0  0  0  0
    0.7850    2.8860   69.5950 O   0  0  0  0  0  0  0  0  0  0  0  0
    0.1130    3.1130   70.8010 C   0  0  0  0  0  0  0  0  0  0  0  0
    2.5880    3.7320   68.2420 C   0  0  0  0  0  0  0  0  0  0  0  0
    3.6140    4.4240   65.3400 S   0  0  0  0  0  0  0  0  0  0  0  0
    4.7500    4.8740   64.3120 C   0  0  0  0  0  0  0  0  0  0  0  0
    5.9350    5.2130   65.0280 C   0  0  0  0  0  0  0  0  0  0  0  0
    5.7190    5.0400   66.4800 N   0  0  0  0  0  0  0  0  0  0  0  0
    4.5730    4.9270   62.7910 C   0  0  0  0  0  0  0  0  0  0  0  0
    5.0310    5.9470   62.3570 N   0  0  0  0  0  0  0  0  0  0  0  0
    4.2870    7.0840   62.8240 C   0  0  0  0  0  0  0  0  0  0  0  0
    3.1380    7.4760   61.9050 C   0  0  0  0  0  0  0  0  0  0  0  0
    3.6000    7.8360   60.5600 C   0  0  0  0  0  0  0  0  0  0  0  0
    4.8440    7.2130   60.1820 C   0  0  0  0  0  0  0  0  0  0  0  0
    5.1570    5.8940   60.9030 C   0  0  0  0  0  0  0  0  0  0  0  0
    3.7790    9.3510   60.4720 C   0  0  0  0  0  0  0  0  0  0  0  0
    4.2200    9.6610   59.1780 O   0  0  0  0  0  0  0  0  0  0  0  0
    2.5410    7.4230   59.5890 O   0  0  0  0  0  0  0  0  0  0  0  0
   65.4300   -8.4210   72.8040 C   0  0  0  0  0  0  0  0  0  0  0  0
   66.3800   -9.0360   71.7730 C   0  0  0  0  0  0  0  0  0  0  0  0
   65.9160  -10.0140   70.9070 C   0  0  0  0  0  0  0  0  0  0  0  0
   66.7680  -10.5730   69.9680 C   0  0  0  0  0  0  0  0  0  0  0  0
   68.0840  -10.1490   69.8930 C   0  0  0  0  0  0  0  0  0  0  0  0
   68.5500   -9.1680   70.7520 C   0  0  0  0  0  0  0  0  0  0  0  0
   69.8800   -8.7340   70.6830 O   0  0  0  0  0  0  0  0  0  0  0  0
   70.4630   -8.8000   69.4140 C   0  0  0  0  0  0  0  0  0  0  0  0
   67.6960   -8.6100   71.6910 C   0  0  0  0  0  0  0  0  0  0  0  0
   65.8550   -7.4100   74.0030 S   0  0  0  0  0  0  0  0  0  0  0  0
   64.4180   -7.1650   74.6570 C   0  0  0  0  0  0  0  0  0  0  0  0
   63.4290   -7.9050   73.9490 C   0  0  0  0  0  0  0  0  0  0  0  0
   64.0540   -8.6520   72.8390 N   0  0  0  0  0  0  0  0  0  0  0  0
   64.1330   -6.2750   75.8670 C   0  0  0  0  0  0  0  0  0  0  0  0
   63.3930   -5.3770   75.5640 N   0  0  0  0  0  0  0  0  0  0  0  0
   62.9770   -4.7110   76.7720 C   0  0  0  0  0  0  0  0  0  0  0  0
   62.1430   -3.4590   76.5240 C   0  0  0  0  0  0  0  0  0  0  0  0
   62.8440   -2.6150   75.5560 C   0  0  0  0  0  0  0  0  0  0  0  0
   63.2680   -3.2010   74.3180 C   0  0  0  0  0  0  0  0  0  0  0  0
   64.0510   -4.4850   74.6080 C   0  0  0  0  0  0  0  0  0  0  0  0
   61.4740   -2.3250   74.9330 C   0  0  0  0  0  0  0  0  0  0  0  0
   60.7140   -1.5470   75.8250 O   0  0  0  0  0  0  0  0  0  0  0  0
   62.9660   -1.1380   75.7520 O   0  0  0  0  0  0  0  0  0  0  0  0
   13.0020  -13.7630  123.5520 C   0  0  0  0  0  0  0  0  0  0  0  0
   12.0890  -14.6430  124.4090 C   0  0  0  0  0  0  0  0  0  0  0  0
   12.5560  -15.8490  124.9100 C   0  0  0  0  0  0  0  0  0  0  0  0
   11.7280  -16.6480  125.6830 C   0  0  0  0  0  0  0  0  0  0  0  0
   10.4310  -16.2400  125.9520 C   0  0  0  0  0  0  0  0  0  0  0  0
    9.9610  -15.0350  125.4520 C   0  0  0  0  0  0  0  0  0  0  0  0
    8.6500  -14.6180  125.7210 O   0  0  0  0  0  0  0  0  0  0  0  0
    8.1220  -15.0780  126.9310 C   0  0  0  0  0  0  0  0  0  0  0  0
   10.7920  -14.2370  124.6800 C   0  0  0  0  0  0  0  0  0  0  0  0
   12.5280  -12.4410  122.7400 S   0  0  0  0  0  0  0  0  0  0  0  0
   13.9150  -12.0150  122.0750 C   0  0  0  0  0  0  0  0  0  0  0  0
   14.9280  -12.9410  122.4620 C   0  0  0  0  0  0  0  0  0  0  0  0
   14.3640  -13.9810  123.3480 N   0  0  0  0  0  0  0  0  0  0  0  0
   14.1180  -10.7970  121.1650 C   0  0  0  0  0  0  0  0  0  0  0  0
   15.1810  -10.2910  121.3920 N   0  0  0  0  0  0  0  0  0  0  0  0
   15.1650   -9.5900  122.6490 C   0  0  0  0  0  0  0  0  0  0  0  0
   14.9300   -8.0930  122.5080 C   0  0  0  0  0  0  0  0  0  0  0  0
   15.9700   -7.4420  121.7070 C   0  0  0  0  0  0  0  0  0  0  0  0
   16.4900   -8.2630  120.6400 C   0  0  0  0  0  0  0  0  0  0  0  0
   15.6450   -9.4900  120.2630 C   0  0  0  0  0  0  0  0  0  0  0  0
   17.1270   -7.0180  122.6080 C   0  0  0  0  0  0  0  0  0  0  0  0
   17.8760   -6.0530  121.9180 O   0  0  0  0  0  0  0  0  0  0  0  0
   15.3750   -6.2110  121.1100 O   0  0  0  0  0  0  0  0  0  0  0  0
   74.3010   -2.5110  132.0660 C   0  0  0  0  0  0  0  0  0  0  0  0
   74.8960   -2.5600  130.6590 C   0  0  0  0  0  0  0  0  0  0  0  0
   74.1560   -2.1510  129.5600 C   0  0  0  0  0  0  0  0  0  0  0  0
   74.7150   -2.2050  128.2920 C   0  0  0  0  0  0  0  0  0  0  0  0
   76.0130   -2.6670  128.1250 C   0  0  0  0  0  0  0  0  0  0  0  0
   76.7540   -3.0760  129.2240 C   0  0  0  0  0  0  0  0  0  0  0  0
   78.0680   -3.5440  129.0710 O   0  0  0  0  0  0  0  0  0  0  0  0
   78.6740   -3.2110  127.8550 C   0  0  0  0  0  0  0  0  0  0  0  0
   76.1910   -3.0190  130.4900 C   0  0  0  0  0  0  0  0  0  0  0  0
   74.9880   -3.1900  133.3670 S   0  0  0  0  0  0  0  0  0  0  0  0
   73.9150   -2.7900  134.4770 C   0  0  0  0  0  0  0  0  0  0  0  0
   72.8570   -2.0500  133.8770 C   0  0  0  0  0  0  0  0  0  0  0  0
   73.1060   -1.8890  132.4280 N   0  0  0  0  0  0  0  0  0  0  0  0
   74.0100   -3.1640  135.9580 C   0  0  0  0  0  0  0  0  0  0  0  0
   74.0640   -2.1910  136.6600 N   0  0  0  0  0  0  0  0  0  0  0  0
   73.9110   -2.6230  138.0290 C   0  0  0  0  0  0  0  0  0  0  0  0
   74.0850   -1.4960  139.0410 C   0  0  0  0  0  0  0  0  0  0  0  0
   75.3320   -0.7860  138.7490 C   0  0  0  0  0  0  0  0  0  0  0  0
   75.5790   -0.3350  137.4070 C   0  0  0  0  0  0  0  0  0  0  0  0
   75.3160   -1.4760  136.4180 C   0  0  0  0  0  0  0  0  0  0  0  0
   74.5640    0.5120  139.0070 C   0  0  0  0  0  0  0  0  0  0  0  0
   74.4770    0.7190  140.3940 O   0  0  0  0  0  0  0  0  0  0  0  0
   76.2490   -0.3570  139.8540 O   0  0  0  0  0  0  0  0  0  0  0  0
  1  2  1  0  0  0  0
  2  3  1  0  0  0  0
  3  4  2  0  0  0  0
  4  5  1  0  0  0  0
  5  6  2  0  0  0  0
  6  7  1  0  0  0  0
  7  8  1  0  0  0  0
  2  9  2  0  0  0  0
  6  9  1  0  0  0  0
  1 10  1  0  0  0  0
 10 11  1  0  0  0  0
 11 12  2  0  0  0  0
  1 13  2  0  0  0  0
 12 13  1  0  0  0  0
 11 14  1  0  0  0  0
 14 15  1  0  0  0  0
 15 16  1  0  0  0  0
 16 17  1  0  0  0  0
 17 18  1  0  0  0  0
 18 19  1  0  0  0  0
 15 20  1  0  0  0  0
 19 20  1  0  0  0  0
 18 21  1  0  0  0  0
 21 22  1  0  0  0  0
 18 23  1  0  0  0  0
 24 25  1  0  0  0  0
 25 26  1  0  0  0  0
 26 27  2  0  0  0  0
 27 28  1  0  0  0  0
 28 29  2  0  0  0  0
 29 30  1  0  0  0  0
 30 31  1  0  0  0  0
 25 32  2  0  0  0  0
 29 32  1  0  0  0  0
 24 33  1  0  0  0  0
 33 34  1  0  0  0  0
 34 35  2  0  0  0  0
 24 36  2  0  0  0  0
 35 36  1  0  0  0  0
 34 37  1  0  0  0  0
 37 38  1  0  0  0  0
 38 39  1  0  0  0  0
 39 40  1  0  0  0  0
 40 41  1  0  0  0  0
 41 42  1  0  0  0  0
 38 43  1  0  0  0  0
 42 43  1  0  0  0  0
 41 44  1  0  0  0  0
 44 45  1  0  0  0  0
 41 46  1  0  0  0  0
 47 48  1  0  0  0  0
 48 49  1  0  0  0  0
 49 50  2  0  0  0  0
 50 51  1  0  0  0  0
 51 52  2  0  0  0  0
 52 53  1  0  0  0  0
 53 54  1  0  0  0  0
 48 55  2  0  0  0  0
 52 55  1  0  0  0  0
 47 56  1  0  0  0  0
 56 57  1  0  0  0  0
 57 58  2  0  0  0  0
 47 59  2  0  0  0  0
 58 59  1  0  0  0  0
 57 60  1  0  0  0  0
 60 61  1  0  0  0  0
 61 62  1  0  0  0  0
 62 63  1  0  0  0  0
 63 64  1  0  0  0  0
 64 65  1  0  0  0  0
 61 66  1  0  0  0  0
 65 66  1  0  0  0  0
 64 67  1  0  0  0  0
 67 68  1  0  0  0  0
 64 69  1  0  0  0  0
 70 71  1  0  0  0  0
 71 72  1  0  0  0  0
 72 73  2  0  0  0  0
 73 74  1  0  0  0  0
 74 75  2  0  0  0  0
 75 76  1  0  0  0  0
 76 77  1  0  0  0  0
 71 78  2  0  0  0  0
 75 78  1  0  0  0  0
 70 79  1  0  0  0  0
 79 80  1  0  0  0  0
 80 81  2  0  0  0  0
 70 82  2  0  0  0  0
 81 82  1  0  0  0  0
 80 83  1  0  0  0  0
 83 84  1  0  0  0  0
 84 85  1  0  0  0  0
 85 86  1  0  0  0  0
 86 87  1  0  0  0  0
 87 88  1  0  0  0  0
 84 89  1  0  0  0  0
 88 89  1  0  0  0  0
 87 90  1  0  0  0  0
 90 91  1  0  0  0  0
 87 92  1  0  0  0  0
M  END
$$$$
