7S6V
  PyMOL3.1          3D                             0

 25 27  0  0  0  0  0  0  0  0999 V2000
   59.0400   36.0050   44.4340 Cl  0  0  0  0  0  0  0  0  0  0  0  0
   60.0710   34.7800   40.7880 C   0  0  0  0  0  0  0  0  0  0  0  0
   60.8570   33.7960   40.1430 N   0  0  0  0  0  0  0  0  0  0  0  0
   55.4920   33.6530   45.4070 O   0  0  0  0  0  0  0  0  0  0  0  0
   59.9660   34.8820   42.1750 C   0  0  0  0  0  0  0  0  0  0  0  0
   61.0630   32.1580   41.8080 N   0  0  0  0  0  0  0  0  0  0  0  0
   59.1750   35.8800   42.7080 C   0  0  0  0  0  0  0  0  0  0  0  0
   62.1570   31.9470   39.6950 N   0  0  0  0  0  0  0  0  0  0  0  0
   58.4870   36.7740   41.9240 C   0  0  0  0  0  0  0  0  0  0  0  0
   60.4950   29.5550   46.0820 N   0  0  0  0  0  0  0  0  0  0  0  0
   58.5950   36.6680   40.5610 C   0  0  0  0  0  0  0  0  0  0  0  0
   58.9770   31.2370   46.3440 N   0  0  0  0  0  0  0  0  0  0  0  0
   59.3700   35.6770   39.9940 C   0  0  0  0  0  0  0  0  0  0  0  0
   61.3670   32.6030   40.5770 C   0  0  0  0  0  0  0  0  0  0  0  0
   61.5900   30.9890   42.1970 C   0  0  0  0  0  0  0  0  0  0  0  0
   62.6520   30.7840   40.1090 C   0  0  0  0  0  0  0  0  0  0  0  0
   62.4030   30.2490   41.3550 C   0  0  0  0  0  0  0  0  0  0  0  0
   61.2230   30.5050   43.5520 C   0  0  0  0  0  0  0  0  0  0  0  0
   61.4280   28.9430   45.3440 C   0  0  0  0  0  0  0  0  0  0  0  0
   61.8130   29.3760   44.0920 C   0  0  0  0  0  0  0  0  0  0  0  0
   60.2470   31.1520   44.2970 C   0  0  0  0  0  0  0  0  0  0  0  0
   59.9090   30.6470   45.5670 C   0  0  0  0  0  0  0  0  0  0  0  0
   58.2270   32.4250   45.9800 C   0  0  0  0  0  0  0  0  0  0  0  0
   57.3280   32.1960   44.7820 C   0  0  0  0  0  0  0  0  0  0  0  0
   56.4880   33.4050   44.4330 C   0  0  0  0  0  0  0  0  0  0  0  0
  2  3  1  0  0  0  0
  2  5  2  0  0  0  0
  1  7  1  0  0  0  0
  5  7  1  0  0  0  0
  7  9  2  0  0  0  0
  9 11  1  0  0  0  0
  2 13  1  0  0  0  0
 11 13  2  0  0  0  0
  3 14  1  0  0  0  0
  6 14  2  0  0  0  0
  8 14  1  0  0  0  0
  6 15  1  0  0  0  0
  8 16  2  0  0  0  0
 15 17  2  0  0  0  0
 16 17  1  0  0  0  0
 15 18  1  0  0  0  0
 10 19  2  0  0  0  0
 18 20  2  0  0  0  0
 19 20  1  0  0  0  0
 18 21  1  0  0  0  0
 10 22  1  0  0  0  0
 12 22  1  0  0  0  0
 21 22  2  0  0  0  0
 12 23  1  0  0  0  0
 23 24  1  0  0  0  0
  4 25  1  0  0  0  0
 24 25  1  0  0  0  0
M  END
$$$$
