7UN4
  PyMOL3.1          3D                             0

126138  0  0  0  0  0  0  0  0999 V2000
  -30.7827   23.1290  -29.7810 C   0  0  0  0  0  0  0  0  0  0  0  0
  -31.1784   23.1322  -28.2765 C   0  0  0  0  0  0  0  0  0  0  0  0
  -31.7011   21.7266  -27.8953 C   0  0  0  0  0  0  0  0  0  0  0  0
  -29.9342   23.4630  -27.4319 C   0  0  0  0  0  0  0  0  0  0  0  0
  -32.2573   24.1996  -27.9596 C   0  0  0  0  0  0  0  0  0  0  0  0
  -31.8598   25.2216  -27.3422 O   0  0  0  0  0  0  0  0  0  0  0  0
  -33.7391   24.1169  -28.3269 C   0  0  0  0  0  0  0  0  0  0  0  0
  -34.6999   25.7549  -28.4965 S   0  0  0  0  0  0  0  0  0  0  0  0
  -34.7077   26.4358  -30.2250 C   0  0  0  0  0  0  0  0  0  0  0  0
  -35.6507   27.3341  -30.5992 N   0  0  0  0  0  0  0  0  0  0  0  0
  -35.6454   27.8302  -31.8914 C   0  0  0  0  0  0  0  0  0  0  0  0
  -34.6509   27.3981  -32.8301 C   0  0  0  0  0  0  0  0  0  0  0  0
  -34.6110   27.9188  -34.2766 C   0  0  0  0  0  0  0  0  0  0  0  0
  -33.2173   27.6780  -35.0035 C   0  0  0  0  0  0  0  0  0  0  0  0
  -32.4066   26.5202  -34.4853 C   0  0  0  0  0  0  0  0  0  0  0  0
  -31.0391   25.5805  -35.1660 S   0  0  0  0  0  0  0  0  0  0  0  0
  -30.8227   24.4834  -33.8115 C   0  0  0  0  0  0  0  0  0  0  0  0
  -31.7895   24.8422  -32.8595 C   0  0  0  0  0  0  0  0  0  0  0  0
  -32.6523   25.9520  -33.2294 C   0  0  0  0  0  0  0  0  0  0  0  0
  -33.7077   26.4683  -32.3808 C   0  0  0  0  0  0  0  0  0  0  0  0
  -33.7297   25.9816  -31.0780 N   0  0  0  0  0  0  0  0  0  0  0  0
   -7.7648    7.1502  -41.3481 C   0  0  0  0  0  0  0  0  0  0  0  0
   -9.0312    7.8801  -41.8760 C   0  0  0  0  0  0  0  0  0  0  0  0
   -8.9903    7.8709  -43.4223 C   0  0  0  0  0  0  0  0  0  0  0  0
  -10.2876    7.1287  -41.3862 C   0  0  0  0  0  0  0  0  0  0  0  0
   -9.1264    9.3424  -41.3625 C   0  0  0  0  0  0  0  0  0  0  0  0
   -8.9485    9.5138  -40.1286 O   0  0  0  0  0  0  0  0  0  0  0  0
   -9.4196   10.5728  -42.2086 C   0  0  0  0  0  0  0  0  0  0  0  0
   -9.3500   12.2609  -41.3332 S   0  0  0  0  0  0  0  0  0  0  0  0
   -7.6270   12.7745  -40.8441 C   0  0  0  0  0  0  0  0  0  0  0  0
   -7.4126   13.9943  -40.2943 N   0  0  0  0  0  0  0  0  0  0  0  0
   -6.1299   14.3670  -39.9352 C   0  0  0  0  0  0  0  0  0  0  0  0
   -5.0308   13.4724  -40.1442 C   0  0  0  0  0  0  0  0  0  0  0  0
   -3.5894   13.8491  -39.7621 C   0  0  0  0  0  0  0  0  0  0  0  0
   -2.6130   12.5988  -39.6596 C   0  0  0  0  0  0  0  0  0  0  0  0
   -2.9992   11.4001  -40.4846 C   0  0  0  0  0  0  0  0  0  0  0  0
   -2.0935    9.9608  -41.0500 S   0  0  0  0  0  0  0  0  0  0  0  0
   -3.4121    9.1861  -41.9119 C   0  0  0  0  0  0  0  0  0  0  0  0
   -4.5244   10.0287  -41.7604 C   0  0  0  0  0  0  0  0  0  0  0  0
   -4.2970   11.2346  -40.9819 C   0  0  0  0  0  0  0  0  0  0  0  0
   -5.3180   12.2273  -40.7168 C   0  0  0  0  0  0  0  0  0  0  0  0
   -6.6146   11.8710  -41.0710 N   0  0  0  0  0  0  0  0  0  0  0  0
   -6.5079    1.7707    2.7634 C   0  0  0  0  0  0  0  0  0  0  0  0
   -7.7365    1.8682    3.7039 C   0  0  0  0  0  0  0  0  0  0  0  0
   -7.5878    3.1293    4.5916 C   0  0  0  0  0  0  0  0  0  0  0  0
   -9.0157    1.9805    2.8544 C   0  0  0  0  0  0  0  0  0  0  0  0
   -7.8805    0.6088    4.5848 C   0  0  0  0  0  0  0  0  0  0  0  0
   -7.3854   -0.4482    4.1178 O   0  0  0  0  0  0  0  0  0  0  0  0
   -8.5639    0.5220    5.9436 C   0  0  0  0  0  0  0  0  0  0  0  0
   -8.3686   -1.1143    6.9058 S   0  0  0  0  0  0  0  0  0  0  0  0
   -6.7248   -1.2798    7.7060 C   0  0  0  0  0  0  0  0  0  0  0  0
   -6.5734   -2.0718    8.7946 N   0  0  0  0  0  0  0  0  0  0  0  0
   -5.3272   -2.1853    9.3870 C   0  0  0  0  0  0  0  0  0  0  0  0
   -4.2140   -1.4518    8.8527 C   0  0  0  0  0  0  0  0  0  0  0  0
   -2.8056   -1.5307    9.4544 C   0  0  0  0  0  0  0  0  0  0  0  0
   -1.7005   -1.2245    8.3921 C   0  0  0  0  0  0  0  0  0  0  0  0
   -2.0821   -0.1537    7.4036 C   0  0  0  0  0  0  0  0  0  0  0  0
   -1.1485    1.0028    6.4152 S   0  0  0  0  0  0  0  0  0  0  0  0
   -2.4983    1.7987    5.6107 C   0  0  0  0  0  0  0  0  0  0  0  0
   -3.6529    1.1743    6.1082 C   0  0  0  0  0  0  0  0  0  0  0  0
   -3.4172    0.1160    7.0930 C   0  0  0  0  0  0  0  0  0  0  0  0
   -4.4508   -0.6549    7.7266 C   0  0  0  0  0  0  0  0  0  0  0  0
   -5.6996   -0.5576    7.1525 N   0  0  0  0  0  0  0  0  0  0  0  0
   -1.7047   16.3643  -32.1482 C   0  0  0  0  0  0  0  0  0  0  0  0
   -1.7893   15.7400  -30.7248 C   0  0  0  0  0  0  0  0  0  0  0  0
   -0.3492   15.5655  -30.1787 C   0  0  0  0  0  0  0  0  0  0  0  0
   -2.5785   16.6940  -29.8057 C   0  0  0  0  0  0  0  0  0  0  0  0
   -2.5213   14.3686  -30.7222 C   0  0  0  0  0  0  0  0  0  0  0  0
   -3.6137   14.3173  -31.3459 O   0  0  0  0  0  0  0  0  0  0  0  0
   -2.0386   13.0951  -30.0320 C   0  0  0  0  0  0  0  0  0  0  0  0
   -3.0755   11.5116  -30.2829 S   0  0  0  0  0  0  0  0  0  0  0  0
   -2.7680   10.6680  -31.9104 C   0  0  0  0  0  0  0  0  0  0  0  0
   -3.3064    9.4502  -32.1545 N   0  0  0  0  0  0  0  0  0  0  0  0
   -3.0708    8.8305  -33.3682 C   0  0  0  0  0  0  0  0  0  0  0  0
   -2.2598    9.4666  -34.3644 C   0  0  0  0  0  0  0  0  0  0  0  0
   -1.9757    8.7998  -35.7211 C   0  0  0  0  0  0  0  0  0  0  0  0
   -1.1927    9.7116  -36.7639 C   0  0  0  0  0  0  0  0  0  0  0  0
   -0.6322   11.0106  -36.2483 C   0  0  0  0  0  0  0  0  0  0  0  0
    0.4208   12.2565  -36.9915 S   0  0  0  0  0  0  0  0  0  0  0  0
    0.4913   13.3457  -35.6177 C   0  0  0  0  0  0  0  0  0  0  0  0
   -0.2856   12.7521  -34.6109 C   0  0  0  0  0  0  0  0  0  0  0  0
   -0.8968   11.4801  -34.9565 C   0  0  0  0  0  0  0  0  0  0  0  0
   -1.7306   10.7239  -34.0486 C   0  0  0  0  0  0  0  0  0  0  0  0
   -1.9808   11.3312  -32.8222 N   0  0  0  0  0  0  0  0  0  0  0  0
  -32.1395  -29.4440  -48.4170 C   0  0  0  0  0  0  0  0  0  0  0  0
  -33.5991  -28.9226  -48.2873 C   0  0  0  0  0  0  0  0  0  0  0  0
  -34.0922  -29.1992  -46.8478 C   0  0  0  0  0  0  0  0  0  0  0  0
  -33.6220  -27.4040  -48.5576 C   0  0  0  0  0  0  0  0  0  0  0  0
  -34.5497  -29.5999  -49.3081 C   0  0  0  0  0  0  0  0  0  0  0  0
  -34.0246  -30.4396  -50.0846 O   0  0  0  0  0  0  0  0  0  0  0  0
  -36.0449  -29.3416  -49.4523 C   0  0  0  0  0  0  0  0  0  0  0  0
  -36.9874  -30.3744  -50.7501 S   0  0  0  0  0  0  0  0  0  0  0  0
  -37.1474  -32.1710  -50.3080 C   0  0  0  0  0  0  0  0  0  0  0  0
  -38.0291  -32.9508  -50.9739 N   0  0  0  0  0  0  0  0  0  0  0  0
  -38.1464  -34.2873  -50.6409 C   0  0  0  0  0  0  0  0  0  0  0  0
  -37.3440  -34.8491  -49.5951 C   0  0  0  0  0  0  0  0  0  0  0  0
  -37.4521  -36.3317  -49.1975 C   0  0  0  0  0  0  0  0  0  0  0  0
  -36.2732  -36.8422  -48.2630 C   0  0  0  0  0  0  0  0  0  0  0  0
  -35.4967  -35.7813  -47.5314 C   0  0  0  0  0  0  0  0  0  0  0  0
  -34.3369  -35.8466  -46.1692 S   0  0  0  0  0  0  0  0  0  0  0  0
  -34.0054  -34.1246  -46.0711 C   0  0  0  0  0  0  0  0  0  0  0  0
  -34.7786  -33.5207  -47.0742 C   0  0  0  0  0  0  0  0  0  0  0  0
  -35.5891  -34.4259  -47.8691 C   0  0  0  0  0  0  0  0  0  0  0  0
  -36.4523  -33.9898  -48.9434 C   0  0  0  0  0  0  0  0  0  0  0  0
  -36.3492  -32.6464  -49.2930 N   0  0  0  0  0  0  0  0  0  0  0  0
   -0.8860   55.9470   -8.5074 C   0  0  0  0  0  0  0  0  0  0  0  0
   -0.8072   54.7857   -7.4751 C   0  0  0  0  0  0  0  0  0  0  0  0
   -2.2480   54.3303   -7.1310 C   0  0  0  0  0  0  0  0  0  0  0  0
   -0.0244   53.6060   -8.0945 C   0  0  0  0  0  0  0  0  0  0  0  0
   -0.0713   55.2127   -6.1831 C   0  0  0  0  0  0  0  0  0  0  0  0
    1.1750   55.3610   -6.2769 O   0  0  0  0  0  0  0  0  0  0  0  0
   -0.7144   55.4633   -4.8258 C   0  0  0  0  0  0  0  0  0  0  0  0
    0.3505   56.3255   -3.5001 S   0  0  0  0  0  0  0  0  0  0  0  0
    0.0923   58.1642   -3.4095 C   0  0  0  0  0  0  0  0  0  0  0  0
    0.4175   58.8340   -2.2786 N   0  0  0  0  0  0  0  0  0  0  0  0
    0.2216   60.2012   -2.2124 C   0  0  0  0  0  0  0  0  0  0  0  0
   -0.3251   60.9094   -3.3307 C   0  0  0  0  0  0  0  0  0  0  0  0
   -0.5602   62.4278   -3.2964 C   0  0  0  0  0  0  0  0  0  0  0  0
   -0.7097   63.0654   -4.7382 C   0  0  0  0  0  0  0  0  0  0  0  0
   -1.2409   62.1520   -5.8026 C   0  0  0  0  0  0  0  0  0  0  0  0
   -1.9992   62.4474   -7.3927 S   0  0  0  0  0  0  0  0  0  0  0  0
   -2.2458   60.7685   -7.8450 C   0  0  0  0  0  0  0  0  0  0  0  0
   -1.7505   60.0022   -6.7781 C   0  0  0  0  0  0  0  0  0  0  0  0
   -1.2035   60.7606   -5.6648 C   0  0  0  0  0  0  0  0  0  0  0  0
   -0.6441   60.1606   -4.4705 C   0  0  0  0  0  0  0  0  0  0  0  0
   -0.4383   58.7848   -4.5181 N   0  0  0  0  0  0  0  0  0  0  0  0
  1  2  1  0  0  0  0
  2  3  1  0  0  0  0
  2  4  1  0  0  0  0
  2  5  1  0  0  0  0
  5  6  2  0  0  0  0
  5  7  1  0  0  0  0
  7  8  1  0  0  0  0
  8  9  1  0  0  0  0
  9 10  1  0  0  0  0
 10 11  2  0  0  0  0
 11 12  1  0  0  0  0
 12 13  1  0  0  0  0
 13 14  1  0  0  0  0
 14 15  1  0  0  0  0
 15 16  1  0  0  0  0
 16 17  1  0  0  0  0
 17 18  2  0  0  0  0
 15 19  2  0  0  0  0
 18 19  1  0  0  0  0
 12 20  2  0  0  0  0
 19 20  1  0  0  0  0
  9 21  2  0  0  0  0
 20 21  1  0  0  0  0
 22 23  1  0  0  0  0
 23 24  1  0  0  0  0
 23 25  1  0  0  0  0
 23 26  1  0  0  0  0
 26 27  2  0  0  0  0
 26 28  1  0  0  0  0
 28 29  1  0  0  0  0
 29 30  1  0  0  0  0
 30 31  1  0  0  0  0
 31 32  2  0  0  0  0
 32 33  1  0  0  0  0
 33 34  1  0  0  0  0
 34 35  1  0  0  0  0
 35 36  1  0  0  0  0
 36 37  1  0  0  0  0
 37 38  1  0  0  0  0
 38 39  2  0  0  0  0
 36 40  2  0  0  0  0
 39 40  1  0  0  0  0
 33 41  2  0  0  0  0
 40 41  1  0  0  0  0
 30 42  2  0  0  0  0
 41 42  1  0  0  0  0
 43 44  1  0  0  0  0
 44 45  1  0  0  0  0
 44 46  1  0  0  0  0
 44 47  1  0  0  0  0
 47 48  2  0  0  0  0
 47 49  1  0  0  0  0
 49 50  1  0  0  0  0
 50 51  1  0  0  0  0
 51 52  1  0  0  0  0
 52 53  2  0  0  0  0
 53 54  1  0  0  0  0
 54 55  1  0  0  0  0
 55 56  1  0  0  0  0
 56 57  1  0  0  0  0
 57 58  1  0  0  0  0
 58 59  1  0  0  0  0
 59 60  2  0  0  0  0
 57 61  2  0  0  0  0
 60 61  1  0  0  0  0
 54 62  2  0  0  0  0
 61 62  1  0  0  0  0
 51 63  2  0  0  0  0
 62 63  1  0  0  0  0
 64 65  1  0  0  0  0
 65 66  1  0  0  0  0
 65 67  1  0  0  0  0
 65 68  1  0  0  0  0
 68 69  2  0  0  0  0
 68 70  1  0  0  0  0
 70 71  1  0  0  0  0
 71 72  1  0  0  0  0
 72 73  1  0  0  0  0
 73 74  2  0  0  0  0
 74 75  1  0  0  0  0
 75 76  1  0  0  0  0
 76 77  1  0  0  0  0
 77 78  1  0  0  0  0
 78 79  1  0  0  0  0
 79 80  1  0  0  0  0
 80 81  2  0  0  0  0
 78 82  2  0  0  0  0
 81 82  1  0  0  0  0
 75 83  2  0  0  0  0
 82 83  1  0  0  0  0
 72 84  2  0  0  0  0
 83 84  1  0  0  0  0
 85 86  1  0  0  0  0
 86 87  1  0  0  0  0
 86 88  1  0  0  0  0
 86 89  1  0  0  0  0
 89 90  2  0  0  0  0
 89 91  1  0  0  0  0
 91 92  1  0  0  0  0
 92 93  1  0  0  0  0
 93 94  1  0  0  0  0
 94 95  2  0  0  0  0
 95 96  1  0  0  0  0
 96 97  1  0  0  0  0
 97 98  1  0  0  0  0
 98 99  1  0  0  0  0
 99100  1  0  0  0  0
100101  1  0  0  0  0
101102  2  0  0  0  0
 99103  2  0  0  0  0
102103  1  0  0  0  0
 96104  2  0  0  0  0
103104  1  0  0  0  0
 93105  2  0  0  0  0
104105  1  0  0  0  0
106107  1  0  0  0  0
107108  1  0  0  0  0
107109  1  0  0  0  0
107110  1  0  0  0  0
110111  2  0  0  0  0
110112  1  0  0  0  0
112113  1  0  0  0  0
113114  1  0  0  0  0
114115  1  0  0  0  0
115116  2  0  0  0  0
116117  1  0  0  0  0
117118  1  0  0  0  0
118119  1  0  0  0  0
119120  1  0  0  0  0
120121  1  0  0  0  0
121122  1  0  0  0  0
122123  2  0  0  0  0
120124  2  0  0  0  0
123124  1  0  0  0  0
117125  2  0  0  0  0
124125  1  0  0  0  0
114126  2  0  0  0  0
125126  1  0  0  0  0
M  END
$$$$
