7UY0
  PyMOL3.1          3D                             0

 72 82  0  0  0  0  0  0  0  0999 V2000
   36.9130   -0.6080  -12.7050 C   0  0  0  0  0  0  0  0  0  0  0  0
   36.6580   -0.6360  -14.0840 C   0  0  0  0  0  0  0  0  0  0  0  0
   37.3840    0.1350  -15.0510 C   0  0  0  0  0  0  0  0  0  0  0  0
   36.6540    0.9170  -15.9640 C   0  0  0  0  0  0  0  0  0  0  0  0
   37.3330    1.7130  -16.9070 C   0  0  0  0  0  0  0  0  0  0  0  0
   38.7380    1.7380  -16.9340 C   0  0  0  0  0  0  0  0  0  0  0  0
   39.4770    0.9860  -16.0040 C   0  0  0  0  0  0  0  0  0  0  0  0
   38.7890    0.1850  -15.0580 C   0  0  0  0  0  0  0  0  0  0  0  0
   35.9660   -1.6870  -10.6140 C   0  0  0  0  0  0  0  0  0  0  0  0
   36.0670   -0.2500  -10.0590 C   0  0  0  0  0  0  0  0  0  0  0  0
   36.1290   -0.2640   -8.5080 C   0  0  0  0  0  0  0  0  0  0  0  0
   37.2380   -1.1980   -7.9670 C   0  0  0  0  0  0  0  0  0  0  0  0
   37.0990   -2.6240   -8.5310 C   0  0  0  0  0  0  0  0  0  0  0  0
   37.0640   -2.5960  -10.0600 C   0  0  0  0  0  0  0  0  0  0  0  0
   38.2820   -1.6100   -6.1000 C   0  0  0  0  0  0  0  0  0  0  0  0
   38.2640   -1.6520   -4.5650 C   0  0  0  0  0  0  0  0  0  0  0  0
   36.0200   -1.3910  -12.0890 N   0  0  0  0  0  0  0  0  0  0  0  0
   35.0040   -1.5760  -16.7010 N   0  0  0  0  0  0  0  0  0  0  0  0
   37.1570   -1.0120   -6.6670 N   0  0  0  0  0  0  0  0  0  0  0  0
   37.1020   -2.1920   -4.0950 N   0  0  0  0  0  0  0  0  0  0  0  0
   35.9870   -1.5740   -4.6200 C   0  0  0  0  0  0  0  0  0  0  0  0
   36.0100   -1.5310   -6.1610 C   0  0  0  0  0  0  0  0  0  0  0  0
   37.0640   -2.1690   -2.8080 C   0  0  0  0  0  0  0  0  0  0  0  0
   40.4740    2.1650  -18.6520 C   0  0  0  0  0  0  0  0  0  0  0  0
   40.4890    0.9130  -19.2740 C   0  0  0  0  0  0  0  0  0  0  0  0
   41.5970    0.5400  -20.0220 C   0  0  0  0  0  0  0  0  0  0  0  0
   42.6790    1.4160  -20.1580 C   0  0  0  0  0  0  0  0  0  0  0  0
   42.6520    2.6760  -19.5430 C   0  0  0  0  0  0  0  0  0  0  0  0
   41.5530    3.0520  -18.8020 C   0  0  0  0  0  0  0  0  0  0  0  0
   39.3630    2.6090  -17.9100 O   0  0  0  0  0  0  0  0  0  0  0  0
   33.7500   -2.8070  -15.1150 N   0  0  0  0  0  0  0  0  0  0  0  0
   33.4610   -3.2160  -13.8710 C   0  0  0  0  0  0  0  0  0  0  0  0
   34.1440   -2.8100  -12.8360 N   0  0  0  0  0  0  0  0  0  0  0  0
   35.1850   -1.9490  -12.9950 C   0  0  0  0  0  0  0  0  0  0  0  0
   35.5310   -1.4970  -14.2680 C   0  0  0  0  0  0  0  0  0  0  0  0
   34.7610   -1.9660  -15.3440 C   0  0  0  0  0  0  0  0  0  0  0  0
   45.9790   14.4210   21.5070 C   0  0  0  0  0  0  0  0  0  0  0  0
   44.6200   14.6760   21.6960 C   0  0  0  0  0  0  0  0  0  0  0  0
   43.6210   14.4550   20.6910 C   0  0  0  0  0  0  0  0  0  0  0  0
   43.3960   13.2160   20.0470 C   0  0  0  0  0  0  0  0  0  0  0  0
   42.4100   13.1210   19.0300 C   0  0  0  0  0  0  0  0  0  0  0  0
   41.6740   14.2590   18.6620 C   0  0  0  0  0  0  0  0  0  0  0  0
   41.9220   15.4880   19.2780 C   0  0  0  0  0  0  0  0  0  0  0  0
   42.8990   15.5790   20.2850 C   0  0  0  0  0  0  0  0  0  0  0  0
   48.1520   14.6530   22.7660 C   0  0  0  0  0  0  0  0  0  0  0  0
   48.3330   13.1360   23.0760 C   0  0  0  0  0  0  0  0  0  0  0  0
   49.8250   12.6800   23.1520 C   0  0  0  0  0  0  0  0  0  0  0  0
   50.7610   13.7190   22.5010 C   0  0  0  0  0  0  0  0  0  0  0  0
   50.1120   14.1900   21.1910 C   0  0  0  0  0  0  0  0  0  0  0  0
   49.0140   15.1780   21.5990 C   0  0  0  0  0  0  0  0  0  0  0  0
   52.1500   11.8390   22.2460 C   0  0  0  0  0  0  0  0  0  0  0  0
   53.6410   11.4730   22.1320 C   0  0  0  0  0  0  0  0  0  0  0  0
   46.6460   14.7720   22.6150 N   0  0  0  0  0  0  0  0  0  0  0  0
   42.1060   15.7480   23.2960 N   0  0  0  0  0  0  0  0  0  0  0  0
   51.9680   13.1940   22.5150 N   0  0  0  0  0  0  0  0  0  0  0  0
   54.3920   12.0400   23.1260 N   0  0  0  0  0  0  0  0  0  0  0  0
   54.2460   13.4040   23.1970 C   0  0  0  0  0  0  0  0  0  0  0  0
   52.7720   13.7590   23.4460 C   0  0  0  0  0  0  0  0  0  0  0  0
   55.6360   11.7200   23.0640 C   0  0  0  0  0  0  0  0  0  0  0  0
   39.8230   13.1780   17.4460 C   0  0  0  0  0  0  0  0  0  0  0  0
   39.1140   12.6320   18.5200 C   0  0  0  0  0  0  0  0  0  0  0  0
   38.2620   11.5650   18.2910 C   0  0  0  0  0  0  0  0  0  0  0  0
   38.1040   11.0550   17.0000 C   0  0  0  0  0  0  0  0  0  0  0  0
   38.8070   11.6170   15.9260 C   0  0  0  0  0  0  0  0  0  0  0  0
   39.6590   12.6790   16.1500 C   0  0  0  0  0  0  0  0  0  0  0  0
   40.6740   14.2800   17.6150 O   0  0  0  0  0  0  0  0  0  0  0  0
   43.7070   16.2350   25.0090 N   0  0  0  0  0  0  0  0  0  0  0  0
   44.9670   16.2540   25.4860 C   0  0  0  0  0  0  0  0  0  0  0  0
   45.9810   15.8070   24.7830 N   0  0  0  0  0  0  0  0  0  0  0  0
   45.7910   15.3040   23.5280 C   0  0  0  0  0  0  0  0  0  0  0  0
   44.5040   15.2690   22.9930 C   0  0  0  0  0  0  0  0  0  0  0  0
   43.4550   15.7570   23.7830 C   0  0  0  0  0  0  0  0  0  0  0  0
  1  2  2  0  0  0  0
  2  3  1  0  0  0  0
  3  4  2  0  0  0  0
  4  5  1  0  0  0  0
  5  6  2  0  0  0  0
  6  7  1  0  0  0  0
  3  8  1  0  0  0  0
  7  8  2  0  0  0  0
  9 10  1  0  0  0  0
 10 11  1  0  0  0  0
 11 12  1  0  0  0  0
 12 13  1  0  0  0  0
  9 14  1  0  0  0  0
 13 14  1  0  0  0  0
 15 16  1  0  0  0  0
  1 17  1  0  0  0  0
  9 17  1  0  0  0  0
 12 19  1  0  0  0  0
 15 19  1  0  0  0  0
 16 20  1  0  0  0  0
 20 21  1  0  0  0  0
 19 22  1  0  0  0  0
 21 22  1  0  0  0  0
 20 23  1  0  0  0  0
 24 25  2  0  0  0  0
 25 26  1  0  0  0  0
 26 27  2  0  0  0  0
 27 28  1  0  0  0  0
 24 29  1  0  0  0  0
 28 29  2  0  0  0  0
  6 30  1  0  0  0  0
 24 30  1  0  0  0  0
 31 32  1  0  0  0  0
 32 33  2  0  0  0  0
 17 34  1  0  0  0  0
 33 34  1  0  0  0  0
  2 35  1  0  0  0  0
 34 35  2  0  0  0  0
 18 36  1  0  0  0  0
 31 36  2  0  0  0  0
 35 36  1  0  0  0  0
 37 38  2  0  0  0  0
 38 39  1  0  0  0  0
 39 40  2  0  0  0  0
 40 41  1  0  0  0  0
 41 42  2  0  0  0  0
 42 43  1  0  0  0  0
 39 44  1  0  0  0  0
 43 44  2  0  0  0  0
 45 46  1  0  0  0  0
 46 47  1  0  0  0  0
 47 48  1  0  0  0  0
 48 49  1  0  0  0  0
 45 50  1  0  0  0  0
 49 50  1  0  0  0  0
 51 52  1  0  0  0  0
 37 53  1  0  0  0  0
 45 53  1  0  0  0  0
 48 55  1  0  0  0  0
 51 55  1  0  0  0  0
 52 56  1  0  0  0  0
 56 57  1  0  0  0  0
 55 58  1  0  0  0  0
 57 58  1  0  0  0  0
 56 59  1  0  0  0  0
 60 61  2  0  0  0  0
 61 62  1  0  0  0  0
 62 63  2  0  0  0  0
 63 64  1  0  0  0  0
 60 65  1  0  0  0  0
 64 65  2  0  0  0  0
 42 66  1  0  0  0  0
 60 66  1  0  0  0  0
 67 68  1  0  0  0  0
 68 69  2  0  0  0  0
 53 70  1  0  0  0  0
 69 70  1  0  0  0  0
 38 71  1  0  0  0  0
 70 71  2  0  0  0  0
 54 72  1  0  0  0  0
 67 72  2  0  0  0  0
 71 72  1  0  0  0  0
M  END
$$$$
