8R3F
  PyMOL3.1          3D                             0

 23 23  0  0  0  0  0  0  0  0999 V2000
   -1.1662   -8.4038   22.4752 C   0  0  0  0  0  0  0  0  0  0  0  0
   -0.0358   -7.9517   23.1170 C   0  0  0  0  0  0  0  0  0  0  0  0
    0.4129   -8.6464   24.2244 C   0  0  0  0  0  0  0  0  0  0  0  0
   -0.2636   -9.7878   24.6331 C   0  0  0  0  0  0  0  0  0  0  0  0
   -1.3969  -10.2542   23.9557 C   0  0  0  0  0  0  0  0  0  0  0  0
   -1.8425   -9.5370   22.8515 C   0  0  0  0  0  0  0  0  0  0  0  0
    0.2383  -10.4314   25.7334 O   0  0  0  0  0  0  0  0  0  0  0  0
   -0.0757  -11.8221   25.7295 C   0  0  0  0  0  0  0  0  0  0  0  0
   -1.5600  -12.0701   25.6473 C   0  0  0  0  0  0  0  0  0  0  0  0
   -2.1609  -11.4898   24.3705 C   0  0  0  0  0  0  0  0  0  0  0  0
   -2.1067  -12.5060   23.2696 N   0  0  0  0  0  0  0  0  0  0  0  0
   -1.6304   -7.7115   21.4009 F   0  0  0  0  0  0  0  0  0  0  0  0
    0.4984   -7.0692   22.7681 H   0  0  0  0  0  0  0  0  0  0  0  0
    1.2888   -8.3053   24.7743 H   0  0  0  0  0  0  0  0  0  0  0  0
   -2.7135   -9.8504   22.2778 H   0  0  0  0  0  0  0  0  0  0  0  0
    0.3938  -12.1923   26.6397 H   0  0  0  0  0  0  0  0  0  0  0  0
    0.4938  -12.2100   24.8862 H   0  0  0  0  0  0  0  0  0  0  0  0
   -2.0254  -11.6525   26.5388 H   0  0  0  0  0  0  0  0  0  0  0  0
   -1.7312  -13.1429   25.7229 H   0  0  0  0  0  0  0  0  0  0  0  0
   -3.2038  -11.2107   24.5133 H   0  0  0  0  0  0  0  0  0  0  0  0
   -1.2366  -12.4415   22.7509 H   0  0  0  0  0  0  0  0  0  0  0  0
   -2.8672  -12.3760   22.6101 H   0  0  0  0  0  0  0  0  0  0  0  0
   -2.1762  -13.4501   23.6357 H   0  0  0  0  0  0  0  0  0  0  0  0
  1  2  2  0  0  0  0
  2  3  1  0  0  0  0
  3  4  2  0  0  0  0
  4  5  1  0  0  0  0
  1  6  1  0  0  0  0
  5  6  2  0  0  0  0
  4  7  1  0  0  0  0
  7  8  1  0  0  0  0
  8  9  1  0  0  0  0
  5 10  1  0  0  0  0
  9 10  1  0  0  0  0
 10 11  1  0  0  0  0
  1 12  1  0  0  0  0
  2 13  1  0  0  0  0
  3 14  1  0  0  0  0
  6 15  1  0  0  0  0
  8 16  1  0  0  0  0
  8 17  1  0  0  0  0
  9 18  1  0  0  0  0
  9 19  1  0  0  0  0
 10 20  1  0  0  0  0
 11 21  1  0  0  0  0
 11 22  1  0  0  0  0
M  END
$$$$
