6YYD
  PyMOL3.1          3D                             0

 23 25  0  0  0  0  0  0  0  0999 V2000
   19.2080   13.0820   30.1200 N   0  0  0  0  0  0  0  0  0  0  0  0
   19.1210   14.2350   30.9140 C   0  0  0  0  0  0  0  0  0  0  0  0
   19.5360   14.2170   32.2730 C   0  0  0  0  0  0  0  0  0  0  0  0
   20.0800   12.8920   32.8960 C   0  0  0  0  0  0  0  0  0  0  0  0
   20.4790   11.9140   33.3400 N   0  0  0  0  0  0  0  0  0  0  0  0
   19.4130   15.4160   33.0230 C   0  0  0  0  0  0  0  0  0  0  0  0
   18.9500   16.5200   32.4030 N   0  0  0  0  0  0  0  0  0  0  0  0
   18.5710   16.4970   31.1250 C   0  0  0  0  0  0  0  0  0  0  0  0
   18.6670   15.3970   30.3860 N   0  0  0  0  0  0  0  0  0  0  0  0
   19.7990   15.5280   34.5250 C   0  0  0  0  0  0  0  0  0  0  0  0
   19.9160   14.5000   35.4440 C   0  0  0  0  0  0  0  0  0  0  0  0
   20.2270   15.0780   36.6320 N   0  0  0  0  0  0  0  0  0  0  0  0
   20.4830   14.3700   37.8670 C   0  0  0  0  0  0  0  0  0  0  0  0
   22.0350   14.3920   37.9780 C   0  0  0  0  0  0  0  0  0  0  0  0
   22.6430   15.3640   38.7630 C   0  0  0  0  0  0  0  0  0  0  0  0
   24.0310   15.3930   38.8520 C   0  0  0  0  0  0  0  0  0  0  0  0
   24.8010   14.4740   38.1450 C   0  0  0  0  0  0  0  0  0  0  0  0
   24.1940   13.4970   37.3430 C   0  0  0  0  0  0  0  0  0  0  0  0
   22.8080   13.4660   37.2540 C   0  0  0  0  0  0  0  0  0  0  0  0
   20.2840   16.4310   36.5070 N   0  0  0  0  0  0  0  0  0  0  0  0
   20.0110   16.7450   35.1990 C   0  0  0  0  0  0  0  0  0  0  0  0
   26.1500   14.5330   38.2530 F   0  0  0  0  0  0  0  0  0  0  0  0
   24.6220   16.3170   39.6190 F   0  0  0  0  0  0  0  0  0  0  0  0
  1  2  1  0  0  0  0
  2  3  1  0  0  0  0
  3  4  1  0  0  0  0
  4  5  3  0  0  0  0
  3  6  2  0  0  0  0
  6  7  1  0  0  0  0
  7  8  2  0  0  0  0
  2  9  2  0  0  0  0
  8  9  1  0  0  0  0
  6 10  1  0  0  0  0
 10 11  2  0  0  0  0
 11 12  1  0  0  0  0
 12 13  1  0  0  0  0
 13 14  1  0  0  0  0
 14 15  2  0  0  0  0
 15 16  1  0  0  0  0
 16 17  2  0  0  0  0
 17 18  1  0  0  0  0
 14 19  1  0  0  0  0
 18 19  2  0  0  0  0
 12 20  1  0  0  0  0
 10 21  1  0  0  0  0
 20 21  2  0  0  0  0
 17 22  1  0  0  0  0
 16 23  1  0  0  0  0
M  END
$$$$
