8VLS
  PyMOL3.1          3D                             0

 25 27  0  0  0  0  0  0  0  0999 V2000
  148.7150  148.2370  139.9190 C   0  0  0  0  0  0  0  0  0  0  0  0
  147.2650  147.9920  139.7220 N   0  0  0  0  0  0  0  0  0  0  0  0
  147.5870  146.6880  137.8760 O   0  0  0  0  0  0  0  0  0  0  0  0
  147.9390  150.8030  140.4040 S   0  0  0  0  0  0  0  0  0  0  0  0
  149.7300  147.0920  139.7720 C   0  0  0  0  0  0  0  0  0  0  0  0
  144.9120  148.6600  136.7230 N   0  0  0  0  0  0  0  0  0  0  0  0
  143.2420  149.4510  138.4890 O   0  0  0  0  0  0  0  0  0  0  0  0
  151.0250  147.3290  139.9480 C   0  0  0  0  0  0  0  0  0  0  0  0
  151.5070  148.7540  140.3020 C   0  0  0  0  0  0  0  0  0  0  0  0
  150.6290  149.7410  140.4280 C   0  0  0  0  0  0  0  0  0  0  0  0
  149.1350  149.4670  140.2240 C   0  0  0  0  0  0  0  0  0  0  0  0
  148.1920  151.9980  139.0690 C   0  0  0  0  0  0  0  0  0  0  0  0
  147.4730  153.2480  139.4000 C   0  0  0  0  0  0  0  0  0  0  0  0
  146.8130  147.1600  138.6070 C   0  0  0  0  0  0  0  0  0  0  0  0
  145.2910  146.9020  138.3970 C   0  0  0  0  0  0  0  0  0  0  0  0
  144.9190  147.2170  136.9400 C   0  0  0  0  0  0  0  0  0  0  0  0
  144.2170  149.6560  137.4900 C   0  0  0  0  0  0  0  0  0  0  0  0
  144.8290  151.1220  136.9180 C   0  0  0  0  0  0  0  0  0  0  0  0
  145.6990  150.7470  135.9340 C   0  0  0  0  0  0  0  0  0  0  0  0
  145.6220  149.3350  135.9260 C   0  0  0  0  0  0  0  0  0  0  0  0
  144.6230  152.6050  137.2440 C   0  0  0  0  0  0  0  0  0  0  0  0
  145.3000  153.5390  136.5610 C   0  0  0  0  0  0  0  0  0  0  0  0
  146.2950  153.1120  135.4360 C   0  0  0  0  0  0  0  0  0  0  0  0
  146.4730  151.8180  135.1530 C   0  0  0  0  0  0  0  0  0  0  0  0
  143.5170  146.6540  136.6510 C   0  0  0  0  0  0  0  0  0  0  0  0
  1  2  1  0  0  0  0
  1  5  1  0  0  0  0
  5  8  2  0  0  0  0
  8  9  1  0  0  0  0
  9 10  2  0  0  0  0
  1 11  2  0  0  0  0
  4 11  1  0  0  0  0
 10 11  1  0  0  0  0
  4 12  1  0  0  0  0
 12 13  1  0  0  0  0
  2 14  1  0  0  0  0
  3 14  2  0  0  0  0
 14 15  1  0  0  0  0
  6 16  1  0  0  0  0
 15 16  1  0  0  0  0
  6 17  1  0  0  0  0
  7 17  2  0  0  0  0
 17 18  1  0  0  0  0
 18 19  1  0  0  0  0
  6 20  1  0  0  0  0
 19 20  1  0  0  0  0
 18 21  2  0  0  0  0
 21 22  1  0  0  0  0
 22 23  2  0  0  0  0
 19 24  2  0  0  0  0
 23 24  1  0  0  0  0
 16 25  1  0  0  0  0
M  END
$$$$
