6MC1
  PyMOL3.1          3D                             0

138150  0  0  0  0  0  0  0  0999 V2000
   70.0380  -91.7260   -0.2600 C   0  0  0  0  0  0  0  0  0  0  0  0
   71.2640  -90.5230   -0.6780 S   0  0  0  0  0  0  0  0  0  0  0  0
   70.3320  -89.1020   -1.2320 C   0  0  0  0  0  0  0  0  0  0  0  0
   68.6220  -89.2300   -1.3360 S   0  0  0  0  0  0  0  0  0  0  0  0
   68.4350  -87.6230   -1.8890 C   0  0  0  0  0  0  0  0  0  0  0  0
   69.6370  -86.9720   -1.9970 C   0  0  0  0  0  0  0  0  0  0  0  0
   69.8260  -85.5530   -2.4400 C   0  0  0  0  0  0  0  0  0  0  0  0
   71.2580  -85.2080   -2.8770 C   0  0  0  0  0  0  0  0  0  0  0  0
   72.3690  -86.0450   -2.2740 C   0  0  0  0  0  0  0  0  0  0  0  0
   73.6700  -85.5760   -2.3200 C   0  0  0  0  0  0  0  0  0  0  0  0
   74.6540  -86.3090   -1.7930 N   0  0  0  0  0  0  0  0  0  0  0  0
   74.3750  -87.5130   -1.2160 C   0  0  0  0  0  0  0  0  0  0  0  0
   75.7160  -88.4590   -0.5260 S   0  0  0  0  0  0  0  0  0  0  0  0
   75.1330  -90.0300    0.1260 C   0  0  0  0  0  0  0  0  0  0  0  0
   75.4040  -91.2150   -0.8630 C   0  0  0  0  0  0  0  0  0  0  0  0
   75.6040  -90.9970   -2.0250 O   0  0  0  0  0  0  0  0  0  0  0  0
   75.4220  -92.6920   -0.4080 C   0  0  0  0  0  0  0  0  0  0  0  0
   74.3820  -93.4400   -1.1800 C   0  0  0  0  0  0  0  0  0  0  0  0
   75.1400  -92.8400    1.0830 C   0  0  0  0  0  0  0  0  0  0  0  0
   76.8200  -93.2800   -0.7440 C   0  0  0  0  0  0  0  0  0  0  0  0
   73.1160  -87.9900   -1.1640 N   0  0  0  0  0  0  0  0  0  0  0  0
   72.0920  -87.2920   -1.6760 C   0  0  0  0  0  0  0  0  0  0  0  0
   70.7350  -87.8140   -1.6190 C   0  0  0  0  0  0  0  0  0  0  0  0
   65.8530  -86.1880   -6.7250 C   0  0  0  0  0  0  0  0  0  0  0  0
   66.6200  -87.3210   -7.8470 S   0  0  0  0  0  0  0  0  0  0  0  0
   66.9040  -88.8370   -6.9460 C   0  0  0  0  0  0  0  0  0  0  0  0
   66.1650  -89.0770   -5.4020 S   0  0  0  0  0  0  0  0  0  0  0  0
   66.8690  -90.6230   -5.2240 C   0  0  0  0  0  0  0  0  0  0  0  0
   67.6480  -90.9740   -6.2990 C   0  0  0  0  0  0  0  0  0  0  0  0
   68.3950  -92.2590   -6.4680 C   0  0  0  0  0  0  0  0  0  0  0  0
   69.5820  -92.1640   -7.4400 C   0  0  0  0  0  0  0  0  0  0  0  0
   69.4010  -91.2190   -8.6100 C   0  0  0  0  0  0  0  0  0  0  0  0
   70.1630  -91.4010   -9.7570 C   0  0  0  0  0  0  0  0  0  0  0  0
   70.0160  -90.5670  -10.7810 N   0  0  0  0  0  0  0  0  0  0  0  0
   69.1160  -89.5470  -10.6930 C   0  0  0  0  0  0  0  0  0  0  0  0
   68.9370  -88.4460  -12.0810 S   0  0  0  0  0  0  0  0  0  0  0  0
   67.6830  -87.2100  -11.7100 C   0  0  0  0  0  0  0  0  0  0  0  0
   68.2880  -85.8270  -11.2850 C   0  0  0  0  0  0  0  0  0  0  0  0
   69.3280  -85.7510  -10.6900 O   0  0  0  0  0  0  0  0  0  0  0  0
   67.5830  -84.5010  -11.6180 C   0  0  0  0  0  0  0  0  0  0  0  0
   67.2810  -83.7910  -10.3430 C   0  0  0  0  0  0  0  0  0  0  0  0
   66.2910  -84.7040  -12.4010 C   0  0  0  0  0  0  0  0  0  0  0  0
   68.5940  -83.6830  -12.4570 C   0  0  0  0  0  0  0  0  0  0  0  0
   68.3680  -89.3550   -9.5840 N   0  0  0  0  0  0  0  0  0  0  0  0
   68.4710  -90.1640   -8.5180 C   0  0  0  0  0  0  0  0  0  0  0  0
   67.6750  -89.9580   -7.3040 C   0  0  0  0  0  0  0  0  0  0  0  0
   97.2940  -76.6630   -8.7070 C   0  0  0  0  0  0  0  0  0  0  0  0
   98.6670  -75.9760   -9.5900 S   0  0  0  0  0  0  0  0  0  0  0  0
   99.4530  -74.8860   -8.4080 C   0  0  0  0  0  0  0  0  0  0  0  0
   98.8640  -74.9240   -6.7910 S   0  0  0  0  0  0  0  0  0  0  0  0
   99.9850  -73.7370   -6.2750 C   0  0  0  0  0  0  0  0  0  0  0  0
  100.8080  -73.3020   -7.2860 C   0  0  0  0  0  0  0  0  0  0  0  0
  101.8980  -72.2840   -7.1550 C   0  0  0  0  0  0  0  0  0  0  0  0
  102.5360  -71.7880   -8.4620 C   0  0  0  0  0  0  0  0  0  0  0  0
  102.2590  -72.5890   -9.7130 C   0  0  0  0  0  0  0  0  0  0  0  0
  102.9700  -72.2970  -10.8710 C   0  0  0  0  0  0  0  0  0  0  0  0
  102.7230  -73.0020  -11.9830 N   0  0  0  0  0  0  0  0  0  0  0  0
  101.7780  -73.9990  -11.9710 C   0  0  0  0  0  0  0  0  0  0  0  0
  101.4380  -74.9530  -13.4400 S   0  0  0  0  0  0  0  0  0  0  0  0
  100.3870  -76.3400  -13.0010 C   0  0  0  0  0  0  0  0  0  0  0  0
   98.9530  -76.2340  -13.6170 C   0  0  0  0  0  0  0  0  0  0  0  0
   98.4140  -75.1780  -13.7950 O   0  0  0  0  0  0  0  0  0  0  0  0
   98.1850  -77.5010  -14.0200 C   0  0  0  0  0  0  0  0  0  0  0  0
   96.8290  -77.4550  -13.3970 C   0  0  0  0  0  0  0  0  0  0  0  0
   98.9210  -78.7460  -13.5530 C   0  0  0  0  0  0  0  0  0  0  0  0
   98.0780  -77.4700  -15.5680 C   0  0  0  0  0  0  0  0  0  0  0  0
  101.0820  -74.2830  -10.8560 N   0  0  0  0  0  0  0  0  0  0  0  0
  101.2850  -73.6130   -9.7110 C   0  0  0  0  0  0  0  0  0  0  0  0
  100.5090  -73.9530   -8.5230 C   0  0  0  0  0  0  0  0  0  0  0  0
   69.7570  -41.1520  -32.9740 C   0  0  0  0  0  0  0  0  0  0  0  0
   68.9490  -41.3920  -34.5260 S   0  0  0  0  0  0  0  0  0  0  0  0
   68.9200  -39.8160  -35.3560 C   0  0  0  0  0  0  0  0  0  0  0  0
   69.6370  -38.4300  -34.6300 S   0  0  0  0  0  0  0  0  0  0  0  0
   69.2170  -37.4150  -35.9410 C   0  0  0  0  0  0  0  0  0  0  0  0
   68.5500  -38.0980  -36.9300 C   0  0  0  0  0  0  0  0  0  0  0  0
   68.0380  -37.5450  -38.2240 C   0  0  0  0  0  0  0  0  0  0  0  0
   66.8400  -38.3410  -38.7740 C   0  0  0  0  0  0  0  0  0  0  0  0
   66.9520  -39.8430  -38.6170 C   0  0  0  0  0  0  0  0  0  0  0  0
   66.3250  -40.7040  -39.5040 C   0  0  0  0  0  0  0  0  0  0  0  0
   66.4430  -42.0270  -39.3340 N   0  0  0  0  0  0  0  0  0  0  0  0
   67.1770  -42.5220  -38.2920 C   0  0  0  0  0  0  0  0  0  0  0  0
   67.3390  -44.2850  -38.0560 S   0  0  0  0  0  0  0  0  0  0  0  0
   68.3740  -44.6630  -36.6180 C   0  0  0  0  0  0  0  0  0  0  0  0
   67.5900  -44.9510  -35.2800 C   0  0  0  0  0  0  0  0  0  0  0  0
   66.4680  -44.5480  -35.1510 O   0  0  0  0  0  0  0  0  0  0  0  0
   68.1730  -45.7450  -34.0750 C   0  0  0  0  0  0  0  0  0  0  0  0
   68.1180  -44.9070  -32.8370 C   0  0  0  0  0  0  0  0  0  0  0  0
   69.6040  -46.2310  -34.2770 C   0  0  0  0  0  0  0  0  0  0  0  0
   67.2470  -46.9660  -33.8620 C   0  0  0  0  0  0  0  0  0  0  0  0
   67.7860  -41.6900  -37.4280 N   0  0  0  0  0  0  0  0  0  0  0  0
   67.6960  -40.3590  -37.5430 C   0  0  0  0  0  0  0  0  0  0  0  0
   68.3730  -39.4780  -36.5990 C   0  0  0  0  0  0  0  0  0  0  0  0
   70.5830  -98.1270  -47.3960 C   0  0  0  0  0  0  0  0  0  0  0  0
   71.5920  -99.4590  -47.9840 S   0  0  0  0  0  0  0  0  0  0  0  0
   70.7380 -100.2470  -49.3390 C   0  0  0  0  0  0  0  0  0  0  0  0
   69.0630  -99.9440  -49.5800 S   0  0  0  0  0  0  0  0  0  0  0  0
   68.9800 -100.9580  -50.9510 C   0  0  0  0  0  0  0  0  0  0  0  0
   70.1900 -101.5310  -51.2430 C   0  0  0  0  0  0  0  0  0  0  0  0
   70.4730 -102.4650  -52.3760 C   0  0  0  0  0  0  0  0  0  0  0  0
   71.6740 -103.3830  -52.1150 C   0  0  0  0  0  0  0  0  0  0  0  0
   72.8120 -102.7630  -51.3310 C   0  0  0  0  0  0  0  0  0  0  0  0
   74.0940 -103.2820  -51.4580 C   0  0  0  0  0  0  0  0  0  0  0  0
   75.0970 -102.7420  -50.7640 N   0  0  0  0  0  0  0  0  0  0  0  0
   74.8460 -101.6880  -49.9390 C   0  0  0  0  0  0  0  0  0  0  0  0
   76.1960 -100.9710  -49.0330 S   0  0  0  0  0  0  0  0  0  0  0  0
   75.6680  -99.4040  -48.3200 C   0  0  0  0  0  0  0  0  0  0  0  0
   75.6420  -99.4270  -46.7520 C   0  0  0  0  0  0  0  0  0  0  0  0
   75.6400 -100.4580  -46.1290 O   0  0  0  0  0  0  0  0  0  0  0  0
   75.6170  -98.1330  -45.9170 C   0  0  0  0  0  0  0  0  0  0  0  0
   74.3970  -98.2120  -45.0510 C   0  0  0  0  0  0  0  0  0  0  0  0
   75.5870  -96.8580  -46.7620 C   0  0  0  0  0  0  0  0  0  0  0  0
   76.9040  -98.1560  -45.0470 C   0  0  0  0  0  0  0  0  0  0  0  0
   73.6080 -101.1720  -49.7980 N   0  0  0  0  0  0  0  0  0  0  0  0
   72.5630 -101.6660  -50.4800 C   0  0  0  0  0  0  0  0  0  0  0  0
   71.2130 -101.1270  -50.3250 C   0  0  0  0  0  0  0  0  0  0  0  0
   98.0490  -68.7750   -3.8950 C   0  0  0  0  0  0  0  0  0  0  0  0
   97.0090  -68.1720   -5.1930 S   0  0  0  0  0  0  0  0  0  0  0  0
   96.1870  -69.6460   -5.7530 C   0  0  0  0  0  0  0  0  0  0  0  0
   96.5220  -71.1100   -4.9160 S   0  0  0  0  0  0  0  0  0  0  0  0
   95.4710  -72.0060   -5.9240 C   0  0  0  0  0  0  0  0  0  0  0  0
   94.8680  -71.2300   -6.8820 C   0  0  0  0  0  0  0  0  0  0  0  0
   93.8930  -71.6970   -7.9150 C   0  0  0  0  0  0  0  0  0  0  0  0
   93.7680  -70.7640   -9.1260 C   0  0  0  0  0  0  0  0  0  0  0  0
   94.0020  -69.2900   -8.8680 C   0  0  0  0  0  0  0  0  0  0  0  0
   93.4980  -68.3450   -9.7540 C   0  0  0  0  0  0  0  0  0  0  0  0
   93.7160  -67.0470   -9.5180 N   0  0  0  0  0  0  0  0  0  0  0  0
   94.4310  -66.6700   -8.4120 C   0  0  0  0  0  0  0  0  0  0  0  0
   94.7310  -64.9420   -8.0990 S   0  0  0  0  0  0  0  0  0  0  0  0
   95.8130  -64.7630   -6.6700 C   0  0  0  0  0  0  0  0  0  0  0  0
   97.3130  -64.5300   -7.0550 C   0  0  0  0  0  0  0  0  0  0  0  0
   97.7730  -64.9740   -8.0700 O   0  0  0  0  0  0  0  0  0  0  0  0
   98.2660  -63.7290   -6.1490 C   0  0  0  0  0  0  0  0  0  0  0  0
   99.5530  -64.4790   -6.0510 C   0  0  0  0  0  0  0  0  0  0  0  0
   97.6740  -63.5080   -4.7630 C   0  0  0  0  0  0  0  0  0  0  0  0
   98.5240  -62.3690   -6.8440 C   0  0  0  0  0  0  0  0  0  0  0  0
   94.9280  -67.5810   -7.5490 N   0  0  0  0  0  0  0  0  0  0  0  0
   94.7370  -68.8910   -7.7360 C   0  0  0  0  0  0  0  0  0  0  0  0
   95.2760  -69.8630   -6.7960 C   0  0  0  0  0  0  0  0  0  0  0  0
  1  2  1  0  0  0  0
  2  3  1  0  0  0  0
  3  4  1  0  0  0  0
  4  5  1  0  0  0  0
  5  6  2  0  0  0  0
  6  7  1  0  0  0  0
  7  8  1  0  0  0  0
  8  9  1  0  0  0  0
  9 10  2  0  0  0  0
 10 11  1  0  0  0  0
 11 12  2  0  0  0  0
 12 13  1  0  0  0  0
 13 14  1  0  0  0  0
 14 15  1  0  0  0  0
 15 16  2  0  0  0  0
 15 17  1  0  0  0  0
 17 18  1  0  0  0  0
 17 19  1  0  0  0  0
 17 20  1  0  0  0  0
 12 21  1  0  0  0  0
  9 22  1  0  0  0  0
 21 22  2  0  0  0  0
  3 23  2  0  0  0  0
  6 23  1  0  0  0  0
 22 23  1  0  0  0  0
 24 25  1  0  0  0  0
 25 26  1  0  0  0  0
 26 27  1  0  0  0  0
 27 28  1  0  0  0  0
 28 29  2  0  0  0  0
 29 30  1  0  0  0  0
 30 31  1  0  0  0  0
 31 32  1  0  0  0  0
 32 33  2  0  0  0  0
 33 34  1  0  0  0  0
 34 35  2  0  0  0  0
 35 36  1  0  0  0  0
 36 37  1  0  0  0  0
 37 38  1  0  0  0  0
 38 39  2  0  0  0  0
 38 40  1  0  0  0  0
 40 41  1  0  0  0  0
 40 42  1  0  0  0  0
 40 43  1  0  0  0  0
 35 44  1  0  0  0  0
 32 45  1  0  0  0  0
 44 45  2  0  0  0  0
 26 46  2  0  0  0  0
 29 46  1  0  0  0  0
 45 46  1  0  0  0  0
 47 48  1  0  0  0  0
 48 49  1  0  0  0  0
 49 50  1  0  0  0  0
 50 51  1  0  0  0  0
 51 52  2  0  0  0  0
 52 53  1  0  0  0  0
 53 54  1  0  0  0  0
 54 55  1  0  0  0  0
 55 56  2  0  0  0  0
 56 57  1  0  0  0  0
 57 58  2  0  0  0  0
 58 59  1  0  0  0  0
 59 60  1  0  0  0  0
 60 61  1  0  0  0  0
 61 62  2  0  0  0  0
 61 63  1  0  0  0  0
 63 64  1  0  0  0  0
 63 65  1  0  0  0  0
 63 66  1  0  0  0  0
 58 67  1  0  0  0  0
 55 68  1  0  0  0  0
 67 68  2  0  0  0  0
 49 69  2  0  0  0  0
 52 69  1  0  0  0  0
 68 69  1  0  0  0  0
 70 71  1  0  0  0  0
 71 72  1  0  0  0  0
 72 73  1  0  0  0  0
 73 74  1  0  0  0  0
 74 75  2  0  0  0  0
 75 76  1  0  0  0  0
 76 77  1  0  0  0  0
 77 78  1  0  0  0  0
 78 79  2  0  0  0  0
 79 80  1  0  0  0  0
 80 81  2  0  0  0  0
 81 82  1  0  0  0  0
 82 83  1  0  0  0  0
 83 84  1  0  0  0  0
 84 85  2  0  0  0  0
 84 86  1  0  0  0  0
 86 87  1  0  0  0  0
 86 88  1  0  0  0  0
 86 89  1  0  0  0  0
 81 90  1  0  0  0  0
 78 91  1  0  0  0  0
 90 91  2  0  0  0  0
 72 92  2  0  0  0  0
 75 92  1  0  0  0  0
 91 92  1  0  0  0  0
 93 94  1  0  0  0  0
 94 95  1  0  0  0  0
 95 96  1  0  0  0  0
 96 97  1  0  0  0  0
 97 98  2  0  0  0  0
 98 99  1  0  0  0  0
 99100  1  0  0  0  0
100101  1  0  0  0  0
101102  2  0  0  0  0
102103  1  0  0  0  0
103104  2  0  0  0  0
104105  1  0  0  0  0
105106  1  0  0  0  0
106107  1  0  0  0  0
107108  2  0  0  0  0
107109  1  0  0  0  0
109110  1  0  0  0  0
109111  1  0  0  0  0
109112  1  0  0  0  0
104113  1  0  0  0  0
101114  1  0  0  0  0
113114  2  0  0  0  0
 95115  2  0  0  0  0
 98115  1  0  0  0  0
114115  1  0  0  0  0
116117  1  0  0  0  0
117118  1  0  0  0  0
118119  1  0  0  0  0
119120  1  0  0  0  0
120121  2  0  0  0  0
121122  1  0  0  0  0
122123  1  0  0  0  0
123124  1  0  0  0  0
124125  2  0  0  0  0
125126  1  0  0  0  0
126127  2  0  0  0  0
127128  1  0  0  0  0
128129  1  0  0  0  0
129130  1  0  0  0  0
130131  2  0  0  0  0
130132  1  0  0  0  0
132133  1  0  0  0  0
132134  1  0  0  0  0
132135  1  0  0  0  0
127136  1  0  0  0  0
124137  1  0  0  0  0
136137  2  0  0  0  0
118138  2  0  0  0  0
121138  1  0  0  0  0
137138  1  0  0  0  0
M  END
$$$$
