6W2J
  PyMOL3.1          3D                             0

 60 64  0  0  0  0  0  0  0  0999 V2000
    5.1550    5.5200   20.3800 C   0  0  0  0  0  0  0  0  0  0  0  0
    4.7930    0.7900   26.1470 N   0  0  0  0  0  0  0  0  0  0  0  0
    4.4210    4.3420   20.6940 O   0  0  0  0  0  0  0  0  0  0  0  0
    4.6100    3.8020   21.9410 C   0  0  0  0  0  0  0  0  0  0  0  0
    4.2160   -1.8240   27.1570 N   0  0  0  0  0  0  0  0  0  0  0  0
    5.3920    2.9250   26.5980 O   0  0  0  0  0  0  0  0  0  0  0  0
    5.8220    3.8560   22.6580 C   0  0  0  0  0  0  0  0  0  0  0  0
    4.1150   -4.0740   26.8340 O   0  0  0  0  0  0  0  0  0  0  0  0
    5.9290    3.2620   23.9170 C   0  0  0  0  0  0  0  0  0  0  0  0
    2.2250   -3.8910   32.8080 O   0  0  0  0  0  0  0  0  0  0  0  0
    4.8560    2.5770   24.4760 C   0  0  0  0  0  0  0  0  0  0  0  0
    5.0320    2.0790   25.7670 C   0  0  0  0  0  0  0  0  0  0  0  0
    4.3380   -0.2980   25.2370 C   0  0  0  0  0  0  0  0  0  0  0  0
    4.6260   -1.6580   25.7700 C   0  0  0  0  0  0  0  0  0  0  0  0
    6.0820   -2.0230   25.6210 C   0  0  0  0  0  0  0  0  0  0  0  0
    4.1040   -0.6270   28.0330 C   0  0  0  0  0  0  0  0  0  0  0  0
    2.6800   -0.0970   28.1290 C   0  0  0  0  0  0  0  0  0  0  0  0
    5.0020    0.4740   27.5570 C   0  0  0  0  0  0  0  0  0  0  0  0
    3.9880   -3.0900   27.5840 C   0  0  0  0  0  0  0  0  0  0  0  0
    3.5590   -3.2910   28.8970 C   0  0  0  0  0  0  0  0  0  0  0  0
    2.2180   -3.5650   29.1100 C   0  0  0  0  0  0  0  0  0  0  0  0
    1.7620   -3.7720   30.4070 C   0  0  0  0  0  0  0  0  0  0  0  0
    2.6390   -3.7110   31.5110 C   0  0  0  0  0  0  0  0  0  0  0  0
    1.1080   -4.7550   33.0160 C   0  0  0  0  0  0  0  0  0  0  0  0
    3.9790   -3.4240   31.2770 C   0  0  0  0  0  0  0  0  0  0  0  0
    4.4380   -3.2230   29.9770 C   0  0  0  0  0  0  0  0  0  0  0  0
    3.6330    2.5400   23.7750 C   0  0  0  0  0  0  0  0  0  0  0  0
    3.5310    3.1320   22.5190 C   0  0  0  0  0  0  0  0  0  0  0  0
    5.7330   -2.9900   29.7450 F   0  0  0  0  0  0  0  0  0  0  0  0
    2.4640    1.9220   24.2520 F   0  0  0  0  0  0  0  0  0  0  0  0
    0.6460   46.4620  -63.0470 C   0  0  0  0  0  0  0  0  0  0  0  0
    2.3610   51.3890  -68.4080 N   0  0  0  0  0  0  0  0  0  0  0  0
    0.0400   47.0550  -64.1920 O   0  0  0  0  0  0  0  0  0  0  0  0
    0.7920   47.8710  -64.9970 C   0  0  0  0  0  0  0  0  0  0  0  0
    1.5780   53.7000  -69.9620 N   0  0  0  0  0  0  0  0  0  0  0  0
    4.0040   49.9320  -67.9150 O   0  0  0  0  0  0  0  0  0  0  0  0
    2.0260   48.4590  -64.6560 C   0  0  0  0  0  0  0  0  0  0  0  0
    0.3620   55.5930  -70.2680 O   0  0  0  0  0  0  0  0  0  0  0  0
    2.6920   49.2860  -65.5610 C   0  0  0  0  0  0  0  0  0  0  0  0
    3.2750   55.7470  -75.6840 O   0  0  0  0  0  0  0  0  0  0  0  0
    2.1170   49.5560  -66.8100 C   0  0  0  0  0  0  0  0  0  0  0  0
    2.8530   50.3340  -67.7110 C   0  0  0  0  0  0  0  0  0  0  0  0
    1.0180   51.9980  -68.2210 C   0  0  0  0  0  0  0  0  0  0  0  0
    1.0610   53.4770  -68.5940 C   0  0  0  0  0  0  0  0  0  0  0  0
    1.9010   54.2910  -67.5980 C   0  0  0  0  0  0  0  0  0  0  0  0
    2.5490   52.7130  -70.4810 C   0  0  0  0  0  0  0  0  0  0  0  0
    1.7980   51.7000  -71.3560 C   0  0  0  0  0  0  0  0  0  0  0  0
    3.2820   52.0360  -69.3440 C   0  0  0  0  0  0  0  0  0  0  0  0
    1.1710   54.7730  -70.6770 C   0  0  0  0  0  0  0  0  0  0  0  0
    1.6810   55.0060  -71.9360 C   0  0  0  0  0  0  0  0  0  0  0  0
    0.9080   54.6950  -73.0550 C   0  0  0  0  0  0  0  0  0  0  0  0
    1.4160   54.9120  -74.3310 C   0  0  0  0  0  0  0  0  0  0  0  0
    2.7080   55.4770  -74.4650 C   0  0  0  0  0  0  0  0  0  0  0  0
    2.4000   55.8290  -76.8100 C   0  0  0  0  0  0  0  0  0  0  0  0
    3.4640   55.7920  -73.3230 C   0  0  0  0  0  0  0  0  0  0  0  0
    2.9420   55.5600  -72.0680 C   0  0  0  0  0  0  0  0  0  0  0  0
    0.8880   48.9440  -67.1470 C   0  0  0  0  0  0  0  0  0  0  0  0
    0.2430   48.1320  -66.2390 C   0  0  0  0  0  0  0  0  0  0  0  0
    3.5740   55.8130  -71.0950 F   0  0  0  0  0  0  0  0  0  0  0  0
    0.2390   49.1020  -68.3380 F   0  0  0  0  0  0  0  0  0  0  0  0
  1  3  1  0  0  0  0
  3  4  1  0  0  0  0
  4  7  1  0  0  0  0
  7  9  2  0  0  0  0
  9 11  1  0  0  0  0
  2 12  1  0  0  0  0
  6 12  2  0  0  0  0
 11 12  1  0  0  0  0
  2 13  1  0  0  0  0
  5 14  1  0  0  0  0
 13 14  1  0  0  0  0
 14 15  1  0  0  0  0
  5 16  1  0  0  0  0
 16 17  1  0  0  0  0
  2 18  1  0  0  0  0
 16 18  1  0  0  0  0
  5 19  1  0  0  0  0
  8 19  2  0  0  0  0
 19 20  1  0  0  0  0
 20 21  2  0  0  0  0
 21 22  1  0  0  0  0
 10 23  1  0  0  0  0
 22 23  2  0  0  0  0
 10 24  1  0  0  0  0
 23 25  1  0  0  0  0
 20 26  1  0  0  0  0
 25 26  2  0  0  0  0
 11 27  2  0  0  0  0
  4 28  2  0  0  0  0
 27 28  1  0  0  0  0
 26 29  1  0  0  0  0
 27 30  1  0  0  0  0
 31 33  1  0  0  0  0
 33 34  1  0  0  0  0
 34 37  1  0  0  0  0
 37 39  2  0  0  0  0
 39 41  1  0  0  0  0
 32 42  1  0  0  0  0
 36 42  2  0  0  0  0
 41 42  1  0  0  0  0
 32 43  1  0  0  0  0
 35 44  1  0  0  0  0
 43 44  1  0  0  0  0
 44 45  1  0  0  0  0
 35 46  1  0  0  0  0
 46 47  1  0  0  0  0
 32 48  1  0  0  0  0
 46 48  1  0  0  0  0
 35 49  1  0  0  0  0
 38 49  2  0  0  0  0
 49 50  1  0  0  0  0
 50 51  2  0  0  0  0
 51 52  1  0  0  0  0
 40 53  1  0  0  0  0
 52 53  2  0  0  0  0
 40 54  1  0  0  0  0
 53 55  1  0  0  0  0
 50 56  1  0  0  0  0
 55 56  2  0  0  0  0
 41 57  2  0  0  0  0
 34 58  2  0  0  0  0
 57 58  1  0  0  0  0
 56 59  1  0  0  0  0
 57 60  1  0  0  0  0
M  END
$$$$
