6W2J
  PyMOL3.1          3D                             0

 30 32  0  0  0  0  0  0  0  0999 V2000
    5.1550    5.5200   20.3800 C   0  0  0  0  0  0  0  0  0  0  0  0
    4.7930    0.7900   26.1470 N   0  0  0  0  0  0  0  0  0  0  0  0
    4.4210    4.3420   20.6940 O   0  0  0  0  0  0  0  0  0  0  0  0
    4.6100    3.8020   21.9410 C   0  0  0  0  0  0  0  0  0  0  0  0
    4.2160   -1.8240   27.1570 N   0  0  0  0  0  0  0  0  0  0  0  0
    5.3920    2.9250   26.5980 O   0  0  0  0  0  0  0  0  0  0  0  0
    5.8220    3.8560   22.6580 C   0  0  0  0  0  0  0  0  0  0  0  0
    4.1150   -4.0740   26.8340 O   0  0  0  0  0  0  0  0  0  0  0  0
    5.9290    3.2620   23.9170 C   0  0  0  0  0  0  0  0  0  0  0  0
    2.2250   -3.8910   32.8080 O   0  0  0  0  0  0  0  0  0  0  0  0
    4.8560    2.5770   24.4760 C   0  0  0  0  0  0  0  0  0  0  0  0
    5.0320    2.0790   25.7670 C   0  0  0  0  0  0  0  0  0  0  0  0
    4.3380   -0.2980   25.2370 C   0  0  0  0  0  0  0  0  0  0  0  0
    4.6260   -1.6580   25.7700 C   0  0  0  0  0  0  0  0  0  0  0  0
    6.0820   -2.0230   25.6210 C   0  0  0  0  0  0  0  0  0  0  0  0
    4.1040   -0.6270   28.0330 C   0  0  0  0  0  0  0  0  0  0  0  0
    2.6800   -0.0970   28.1290 C   0  0  0  0  0  0  0  0  0  0  0  0
    5.0020    0.4740   27.5570 C   0  0  0  0  0  0  0  0  0  0  0  0
    3.9880   -3.0900   27.5840 C   0  0  0  0  0  0  0  0  0  0  0  0
    3.5590   -3.2910   28.8970 C   0  0  0  0  0  0  0  0  0  0  0  0
    2.2180   -3.5650   29.1100 C   0  0  0  0  0  0  0  0  0  0  0  0
    1.7620   -3.7720   30.4070 C   0  0  0  0  0  0  0  0  0  0  0  0
    2.6390   -3.7110   31.5110 C   0  0  0  0  0  0  0  0  0  0  0  0
    1.1080   -4.7550   33.0160 C   0  0  0  0  0  0  0  0  0  0  0  0
    3.9790   -3.4240   31.2770 C   0  0  0  0  0  0  0  0  0  0  0  0
    4.4380   -3.2230   29.9770 C   0  0  0  0  0  0  0  0  0  0  0  0
    3.6330    2.5400   23.7750 C   0  0  0  0  0  0  0  0  0  0  0  0
    3.5310    3.1320   22.5190 C   0  0  0  0  0  0  0  0  0  0  0  0
    5.7330   -2.9900   29.7450 F   0  0  0  0  0  0  0  0  0  0  0  0
    2.4640    1.9220   24.2520 F   0  0  0  0  0  0  0  0  0  0  0  0
  1  3  1  0  0  0  0
  3  4  1  0  0  0  0
  4  7  1  0  0  0  0
  7  9  2  0  0  0  0
  9 11  1  0  0  0  0
  2 12  1  0  0  0  0
  6 12  2  0  0  0  0
 11 12  1  0  0  0  0
  2 13  1  0  0  0  0
  5 14  1  0  0  0  0
 13 14  1  0  0  0  0
 14 15  1  0  0  0  0
  5 16  1  0  0  0  0
 16 17  1  0  0  0  0
  2 18  1  0  0  0  0
 16 18  1  0  0  0  0
  5 19  1  0  0  0  0
  8 19  2  0  0  0  0
 19 20  1  0  0  0  0
 20 21  2  0  0  0  0
 21 22  1  0  0  0  0
 10 23  1  0  0  0  0
 22 23  2  0  0  0  0
 10 24  1  0  0  0  0
 23 25  1  0  0  0  0
 20 26  1  0  0  0  0
 25 26  2  0  0  0  0
 11 27  2  0  0  0  0
  4 28  2  0  0  0  0
 27 28  1  0  0  0  0
 26 29  1  0  0  0  0
 27 30  1  0  0  0  0
M  END
$$$$
