6W2J
  PyMOL3.1          3D                             0

 30 32  0  0  0  0  0  0  0  0999 V2000
    0.6460   46.4620  -63.0470 C   0  0  0  0  0  0  0  0  0  0  0  0
    2.3610   51.3890  -68.4080 N   0  0  0  0  0  0  0  0  0  0  0  0
    0.0400   47.0550  -64.1920 O   0  0  0  0  0  0  0  0  0  0  0  0
    0.7920   47.8710  -64.9970 C   0  0  0  0  0  0  0  0  0  0  0  0
    1.5780   53.7000  -69.9620 N   0  0  0  0  0  0  0  0  0  0  0  0
    4.0040   49.9320  -67.9150 O   0  0  0  0  0  0  0  0  0  0  0  0
    2.0260   48.4590  -64.6560 C   0  0  0  0  0  0  0  0  0  0  0  0
    0.3620   55.5930  -70.2680 O   0  0  0  0  0  0  0  0  0  0  0  0
    2.6920   49.2860  -65.5610 C   0  0  0  0  0  0  0  0  0  0  0  0
    3.2750   55.7470  -75.6840 O   0  0  0  0  0  0  0  0  0  0  0  0
    2.1170   49.5560  -66.8100 C   0  0  0  0  0  0  0  0  0  0  0  0
    2.8530   50.3340  -67.7110 C   0  0  0  0  0  0  0  0  0  0  0  0
    1.0180   51.9980  -68.2210 C   0  0  0  0  0  0  0  0  0  0  0  0
    1.0610   53.4770  -68.5940 C   0  0  0  0  0  0  0  0  0  0  0  0
    1.9010   54.2910  -67.5980 C   0  0  0  0  0  0  0  0  0  0  0  0
    2.5490   52.7130  -70.4810 C   0  0  0  0  0  0  0  0  0  0  0  0
    1.7980   51.7000  -71.3560 C   0  0  0  0  0  0  0  0  0  0  0  0
    3.2820   52.0360  -69.3440 C   0  0  0  0  0  0  0  0  0  0  0  0
    1.1710   54.7730  -70.6770 C   0  0  0  0  0  0  0  0  0  0  0  0
    1.6810   55.0060  -71.9360 C   0  0  0  0  0  0  0  0  0  0  0  0
    0.9080   54.6950  -73.0550 C   0  0  0  0  0  0  0  0  0  0  0  0
    1.4160   54.9120  -74.3310 C   0  0  0  0  0  0  0  0  0  0  0  0
    2.7080   55.4770  -74.4650 C   0  0  0  0  0  0  0  0  0  0  0  0
    2.4000   55.8290  -76.8100 C   0  0  0  0  0  0  0  0  0  0  0  0
    3.4640   55.7920  -73.3230 C   0  0  0  0  0  0  0  0  0  0  0  0
    2.9420   55.5600  -72.0680 C   0  0  0  0  0  0  0  0  0  0  0  0
    0.8880   48.9440  -67.1470 C   0  0  0  0  0  0  0  0  0  0  0  0
    0.2430   48.1320  -66.2390 C   0  0  0  0  0  0  0  0  0  0  0  0
    3.5740   55.8130  -71.0950 F   0  0  0  0  0  0  0  0  0  0  0  0
    0.2390   49.1020  -68.3380 F   0  0  0  0  0  0  0  0  0  0  0  0
  1  3  1  0  0  0  0
  3  4  1  0  0  0  0
  4  7  1  0  0  0  0
  7  9  2  0  0  0  0
  9 11  1  0  0  0  0
  2 12  1  0  0  0  0
  6 12  2  0  0  0  0
 11 12  1  0  0  0  0
  2 13  1  0  0  0  0
  5 14  1  0  0  0  0
 13 14  1  0  0  0  0
 14 15  1  0  0  0  0
  5 16  1  0  0  0  0
 16 17  1  0  0  0  0
  2 18  1  0  0  0  0
 16 18  1  0  0  0  0
  5 19  1  0  0  0  0
  8 19  2  0  0  0  0
 19 20  1  0  0  0  0
 20 21  2  0  0  0  0
 21 22  1  0  0  0  0
 10 23  1  0  0  0  0
 22 23  2  0  0  0  0
 10 24  1  0  0  0  0
 23 25  1  0  0  0  0
 20 26  1  0  0  0  0
 25 26  2  0  0  0  0
 11 27  2  0  0  0  0
  4 28  2  0  0  0  0
 27 28  1  0  0  0  0
 26 29  1  0  0  0  0
 27 30  1  0  0  0  0
M  END
$$$$
