8DSR
  PyMOL3.1          3D                             0

 33 37  0  0  0  0  0  0  0  0999 V2000
   -5.5958   -8.2397   57.8027 Cl  0  0  0  0  0  0  0  0  0  0  0  0
    2.7124  -12.3873   56.1080 C   0  0  0  0  0  0  0  0  0  0  0  0
    1.5120  -11.9109   56.9152 C   0  0  0  0  0  0  0  0  0  0  0  0
    0.2193  -11.8604   56.0967 C   0  0  0  0  0  0  0  0  0  0  0  0
   -0.9214  -11.4353   57.0386 C   0  0  0  0  0  0  0  0  0  0  0  0
   -1.0379  -12.3684   58.2619 C   0  0  0  0  0  0  0  0  0  0  0  0
    0.3295  -12.5333   58.9316 C   0  0  0  0  0  0  0  0  0  0  0  0
    1.3481  -12.8737   57.9773 O   0  0  0  0  0  0  0  0  0  0  0  0
   -2.2364  -11.1781   56.3729 N   0  0  0  0  0  0  0  0  0  0  0  0
   -2.9334  -12.2453   55.8048 C   0  0  0  0  0  0  0  0  0  0  0  0
   -2.5213  -13.3903   55.8143 O   0  0  0  0  0  0  0  0  0  0  0  0
   -4.2714  -11.9426   55.1562 C   0  0  0  0  0  0  0  0  0  0  0  0
   -4.9647  -10.7574   55.8342 C   0  0  0  0  0  0  0  0  0  0  0  0
   -6.1753  -10.2352   55.0445 C   0  0  0  0  0  0  0  0  0  0  0  0
   -3.9464   -9.7248   55.7416 N   0  0  0  0  0  0  0  0  0  0  0  0
   -2.7226   -9.8662   56.3550 C   0  0  0  0  0  0  0  0  0  0  0  0
   -2.0657   -8.9244   56.8829 N   0  0  0  0  0  0  0  0  0  0  0  0
   -5.3515  -11.0216   57.3153 C   0  0  0  0  0  0  0  0  0  0  0  0
   -5.4261  -12.3265   57.7874 C   0  0  0  0  0  0  0  0  0  0  0  0
   -5.7654  -12.5999   59.0998 C   0  0  0  0  0  0  0  0  0  0  0  0
   -6.0394  -11.5868   59.9865 C   0  0  0  0  0  0  0  0  0  0  0  0
   -5.9821  -10.2569   59.5651 C   0  0  0  0  0  0  0  0  0  0  0  0
   -6.2611   -9.1926   60.4083 N   0  0  0  0  0  0  0  0  0  0  0  0
   -6.7361   -9.3043   61.7372 C   0  0  0  0  0  0  0  0  0  0  0  0
   -8.0700   -9.5392   62.0333 C   0  0  0  0  0  0  0  0  0  0  0  0
   -8.5034   -9.6490   63.2832 N   0  0  0  0  0  0  0  0  0  0  0  0
   -7.6146   -9.5613   64.2777 C   0  0  0  0  0  0  0  0  0  0  0  0
   -6.3197   -9.3424   64.0682 N   0  0  0  0  0  0  0  0  0  0  0  0
   -5.8843   -9.2304   62.8208 C   0  0  0  0  0  0  0  0  0  0  0  0
   -8.0582   -9.6970   65.6665 C   0  0  0  0  0  0  0  0  0  0  0  0
   -9.1388  -10.7288   65.9163 C   0  0  0  0  0  0  0  0  0  0  0  0
   -7.7361  -11.0144   66.3575 C   0  0  0  0  0  0  0  0  0  0  0  0
   -5.6385  -10.0256   58.2374 C   0  0  0  0  0  0  0  0  0  0  0  0
  2  3  1  0  0  0  0
  3  4  1  0  0  0  0
  4  5  1  0  0  0  0
  5  6  1  0  0  0  0
  6  7  1  0  0  0  0
  3  8  1  0  0  0  0
  7  8  1  0  0  0  0
  5  9  1  0  0  0  0
  9 10  1  0  0  0  0
 10 11  2  0  0  0  0
 10 12  1  0  0  0  0
 12 13  1  0  0  0  0
 13 14  1  0  0  0  0
 13 15  1  0  0  0  0
  9 16  1  0  0  0  0
 15 16  1  0  0  0  0
 16 17  2  0  0  0  0
 13 18  1  0  0  0  0
 18 19  2  0  0  0  0
 19 20  1  0  0  0  0
 20 21  2  0  0  0  0
 21 22  1  0  0  0  0
 22 23  1  0  0  0  0
 23 24  1  0  0  0  0
 24 25  2  0  0  0  0
 25 26  1  0  0  0  0
 26 27  2  0  0  0  0
 27 28  1  0  0  0  0
 24 29  1  0  0  0  0
 28 29  2  0  0  0  0
 27 30  1  0  0  0  0
 30 31  1  0  0  0  0
 30 32  1  0  0  0  0
 31 32  1  0  0  0  0
  1 33  1  0  0  0  0
 18 33  1  0  0  0  0
 22 33  2  0  0  0  0
M  END
$$$$
