7EJ8
  PyMOL3.1          3D                             0

 17 19  0  0  0  0  0  0  0  0999 V2000
  111.7500  117.5060  137.7440 C   0  0  0  0  0  0  0  0  0  0  0  0
  113.0320  118.0560  137.1910 C   0  0  0  0  0  0  0  0  0  0  0  0
  112.8170  119.4500  136.8790 N   0  0  0  0  0  0  0  0  0  0  0  0
  111.4260  119.7860  137.2250 C   0  0  0  0  0  0  0  0  0  0  0  0
  110.7800  118.5750  137.7590 N   0  0  0  0  0  0  0  0  0  0  0  0
  110.8000  121.0890  137.0680 N   0  0  0  0  0  0  0  0  0  0  0  0
  109.4120  121.2790  137.4530 C   0  0  0  0  0  0  0  0  0  0  0  0
  108.4140  120.5080  136.8630 C   0  0  0  0  0  0  0  0  0  0  0  0
  107.0470  120.6960  137.2420 C   0  0  0  0  0  0  0  0  0  0  0  0
  106.0770  119.9340  136.6570 N   0  0  0  0  0  0  0  0  0  0  0  0
  104.8090  120.1080  137.0080 C   0  0  0  0  0  0  0  0  0  0  0  0
  104.4760  121.0640  137.9700 C   0  0  0  0  0  0  0  0  0  0  0  0
  105.4190  121.8050  138.5390 N   0  0  0  0  0  0  0  0  0  0  0  0
  106.7230  121.6270  138.1790 C   0  0  0  0  0  0  0  0  0  0  0  0
  107.7490  122.4190  138.7840 C   0  0  0  0  0  0  0  0  0  0  0  0
  109.0800  122.2360  138.4150 C   0  0  0  0  0  0  0  0  0  0  0  0
  108.8760  119.1790  135.5260 Br  0  0  0  0  0  0  0  0  0  0  0  0
  1  2  4  0  0  0  0
  1  5  4  0  0  0  0
  2  3  4  0  0  0  0
  3  4  4  0  0  0  0
  4  5  4  0  0  0  0
  4  6  1  0  0  0  0
  6  7  1  0  0  0  0
  7  8  4  0  0  0  0
  7 16  4  0  0  0  0
  8  9  4  0  0  0  0
  8 17  1  0  0  0  0
  9 10  4  0  0  0  0
  9 14  4  0  0  0  0
 10 11  4  0  0  0  0
 11 12  4  0  0  0  0
 12 13  4  0  0  0  0
 13 14  4  0  0  0  0
 14 15  4  0  0  0  0
 15 16  4  0  0  0  0
M  END
$$$$
