8V8V
  PyMOL3.1          3D                             0

 60 66  0  0  0  0  0  0  0  0999 V2000
   -7.4680   16.8800  -62.2020 C   0  0  0  0  0  0  0  0  0  0  0  0
   -5.2430   17.6390  -62.5790 N   0  0  0  0  0  0  0  0  0  0  0  0
   -4.0720   16.8070  -64.3030 O   0  0  0  0  0  0  0  0  0  0  0  0
   -7.5750   17.7160  -61.1000 C   0  0  0  0  0  0  0  0  0  0  0  0
   -4.2480   19.2210  -61.2000 N   0  0  0  0  0  0  0  0  0  0  0  0
   -8.2750   19.8300  -56.0360 O   0  0  0  0  0  0  0  0  0  0  0  0
   -6.5150   18.5060  -60.7440 C   0  0  0  0  0  0  0  0  0  0  0  0
   -2.0930   19.9900  -61.5280 N   0  0  0  0  0  0  0  0  0  0  0  0
   -8.5450   18.4150  -54.4580 O   0  0  0  0  0  0  0  0  0  0  0  0
   -5.3280   18.4650  -61.5010 C   0  0  0  0  0  0  0  0  0  0  0  0
   -7.2610   18.8720  -58.3770 N   0  0  0  0  0  0  0  0  0  0  0  0
   -6.3150   16.8480  -62.9300 C   0  0  0  0  0  0  0  0  0  0  0  0
   -3.1060   19.1930  -61.9270 C   0  0  0  0  0  0  0  0  0  0  0  0
   -2.9960   18.3800  -62.9920 C   0  0  0  0  0  0  0  0  0  0  0  0
   -4.0630   17.5740  -63.3460 C   0  0  0  0  0  0  0  0  0  0  0  0
   -8.6580   16.0280  -62.5600 C   0  0  0  0  0  0  0  0  0  0  0  0
   -6.5960   19.4190  -59.5420 C   0  0  0  0  0  0  0  0  0  0  0  0
   -7.2350   20.7490  -59.9070 C   0  0  0  0  0  0  0  0  0  0  0  0
   -2.0510   20.7720  -60.2890 C   0  0  0  0  0  0  0  0  0  0  0  0
   -0.9030   21.7990  -60.2730 C   0  0  0  0  0  0  0  0  0  0  0  0
    0.4530   21.2710  -60.7410 C   0  0  0  0  0  0  0  0  0  0  0  0
    0.2260   20.6990  -62.1260 C   0  0  0  0  0  0  0  0  0  0  0  0
   -0.7660   19.5550  -62.0130 C   0  0  0  0  0  0  0  0  0  0  0  0
   -6.7100   17.8920  -57.5360 C   0  0  0  0  0  0  0  0  0  0  0  0
   -7.0800   17.8060  -56.1810 C   0  0  0  0  0  0  0  0  0  0  0  0
   -6.5200   16.8220  -55.3700 C   0  0  0  0  0  0  0  0  0  0  0  0
   -5.6170   15.9270  -55.8810 C   0  0  0  0  0  0  0  0  0  0  0  0
   -5.2650   16.0160  -57.2150 C   0  0  0  0  0  0  0  0  0  0  0  0
   -5.8010   16.9780  -58.0340 C   0  0  0  0  0  0  0  0  0  0  0  0
   -8.0070   18.7150  -55.5480 C   0  0  0  0  0  0  0  0  0  0  0  0
    4.2690  -14.7600  -19.6810 C   0  0  0  0  0  0  0  0  0  0  0  0
    5.9200  -15.3100  -18.0820 N   0  0  0  0  0  0  0  0  0  0  0  0
    5.8190  -14.2630  -16.1120 O   0  0  0  0  0  0  0  0  0  0  0  0
    4.8300  -15.6590  -20.5790 C   0  0  0  0  0  0  0  0  0  0  0  0
    7.5860  -16.8530  -18.4800 N   0  0  0  0  0  0  0  0  0  0  0  0
    7.1270  -18.3660  -24.8580 O   0  0  0  0  0  0  0  0  0  0  0  0
    5.9360  -16.3930  -20.2220 C   0  0  0  0  0  0  0  0  0  0  0  0
    9.2000  -17.4130  -16.9010 N   0  0  0  0  0  0  0  0  0  0  0  0
    8.2250  -17.4070  -26.4200 O   0  0  0  0  0  0  0  0  0  0  0  0
    6.4940  -16.1970  -18.9340 C   0  0  0  0  0  0  0  0  0  0  0  0
    6.4730  -16.9140  -22.6090 N   0  0  0  0  0  0  0  0  0  0  0  0
    4.8110  -14.5950  -18.4500 C   0  0  0  0  0  0  0  0  0  0  0  0
    8.1050  -16.6720  -17.2280 C   0  0  0  0  0  0  0  0  0  0  0  0
    7.5400  -15.7870  -16.3780 C   0  0  0  0  0  0  0  0  0  0  0  0
    6.4280  -15.0830  -16.7920 C   0  0  0  0  0  0  0  0  0  0  0  0
    3.0500  -13.9800  -20.0940 C   0  0  0  0  0  0  0  0  0  0  0  0
    6.5640  -17.3580  -21.2250 C   0  0  0  0  0  0  0  0  0  0  0  0
    6.1250  -18.8200  -21.1190 C   0  0  0  0  0  0  0  0  0  0  0  0
    9.6130  -18.6500  -17.5710 C   0  0  0  0  0  0  0  0  0  0  0  0
   10.5420  -19.4900  -16.6720 C   0  0  0  0  0  0  0  0  0  0  0  0
   11.7040  -18.7080  -16.0490 C   0  0  0  0  0  0  0  0  0  0  0  0
   11.1220  -17.4900  -15.3430 C   0  0  0  0  0  0  0  0  0  0  0  0
   10.3390  -16.6530  -16.3450 C   0  0  0  0  0  0  0  0  0  0  0  0
    7.3420  -15.9590  -23.1780 C   0  0  0  0  0  0  0  0  0  0  0  0
    7.9350  -16.1640  -24.4410 C   0  0  0  0  0  0  0  0  0  0  0  0
    8.7880  -15.1750  -24.9450 C   0  0  0  0  0  0  0  0  0  0  0  0
    9.0540  -14.0170  -24.2480 C   0  0  0  0  0  0  0  0  0  0  0  0
    8.4600  -13.8300  -23.0160 C   0  0  0  0  0  0  0  0  0  0  0  0
    7.6160  -14.7810  -22.4960 C   0  0  0  0  0  0  0  0  0  0  0  0
    7.7430  -17.3530  -25.2600 C   0  0  0  0  0  0  0  0  0  0  0  0
  1  4  1  0  0  0  0
  4  7  2  0  0  0  0
  2 10  2  0  0  0  0
  5 10  1  0  0  0  0
  7 10  1  0  0  0  0
  1 12  2  0  0  0  0
  2 12  1  0  0  0  0
  5 13  2  0  0  0  0
  8 13  1  0  0  0  0
 13 14  1  0  0  0  0
  2 15  1  0  0  0  0
  3 15  2  0  0  0  0
 14 15  1  0  0  0  0
  1 16  1  0  0  0  0
  7 17  1  0  0  0  0
 11 17  1  0  0  0  0
 17 18  1  0  0  0  0
  8 19  1  0  0  0  0
 19 20  1  0  0  0  0
 20 21  1  0  0  0  0
 21 22  1  0  0  0  0
  8 23  1  0  0  0  0
 22 23  1  0  0  0  0
 11 24  1  0  0  0  0
 24 25  1  0  0  0  0
 25 26  2  0  0  0  0
 26 27  1  0  0  0  0
 27 28  2  0  0  0  0
 24 29  2  0  0  0  0
 28 29  1  0  0  0  0
  6 30  1  0  0  0  0
  9 30  2  0  0  0  0
 25 30  1  0  0  0  0
 31 34  1  0  0  0  0
 34 37  2  0  0  0  0
 32 40  2  0  0  0  0
 35 40  1  0  0  0  0
 37 40  1  0  0  0  0
 31 42  2  0  0  0  0
 32 42  1  0  0  0  0
 35 43  2  0  0  0  0
 38 43  1  0  0  0  0
 43 44  1  0  0  0  0
 32 45  1  0  0  0  0
 33 45  2  0  0  0  0
 44 45  1  0  0  0  0
 31 46  1  0  0  0  0
 37 47  1  0  0  0  0
 41 47  1  0  0  0  0
 47 48  1  0  0  0  0
 38 49  1  0  0  0  0
 49 50  1  0  0  0  0
 50 51  1  0  0  0  0
 51 52  1  0  0  0  0
 38 53  1  0  0  0  0
 52 53  1  0  0  0  0
 41 54  1  0  0  0  0
 54 55  1  0  0  0  0
 55 56  2  0  0  0  0
 56 57  1  0  0  0  0
 57 58  2  0  0  0  0
 54 59  2  0  0  0  0
 58 59  1  0  0  0  0
 36 60  1  0  0  0  0
 39 60  2  0  0  0  0
 55 60  1  0  0  0  0
M  END
$$$$
