8DD5
  PyMOL3.1          3D                             0

 50 53  0  0  0  0  0  0  0  0999 V2000
   16.8080   17.5060   16.4870 C   0  0  0  0  0  0  0  0  0  0  0  0
   15.8680   13.3010   18.3120 N   0  0  0  0  0  0  0  0  0  0  0  0
   18.4240   13.4090   18.2640 O   0  0  0  0  0  0  0  0  0  0  0  0
   17.2060   14.0350   18.7550 S   0  0  0  0  0  0  0  0  0  0  0  0
   17.9960   18.1690   16.7930 C   0  0  0  0  0  0  0  0  0  0  0  0
   14.3850   14.8160   19.4800 N   0  0  0  0  0  0  0  0  0  0  0  0
   17.2410   14.2410   20.1890 O   0  0  0  0  0  0  0  0  0  0  0  0
   18.8970   17.6300   17.7150 C   0  0  0  0  0  0  0  0  0  0  0  0
    8.3390   12.3480   18.8330 N   0  0  0  0  0  0  0  0  0  0  0  0
   12.9980   14.8890   19.6120 O   0  0  0  0  0  0  0  0  0  0  0  0
   18.6320   16.3870   18.3130 C   0  0  0  0  0  0  0  0  0  0  0  0
    8.4300   12.0440   20.1460 N   0  0  0  0  0  0  0  0  0  0  0  0
   14.1400   11.2440   17.1320 O   0  0  0  0  0  0  0  0  0  0  0  0
   17.4530   15.6760   17.9970 C   0  0  0  0  0  0  0  0  0  0  0  0
   15.3430   15.6290   16.7940 O   0  0  0  0  0  0  0  0  0  0  0  0
   16.5280   16.2730   17.1070 C   0  0  0  0  0  0  0  0  0  0  0  0
   19.5320   15.8280   19.2160 O   0  0  0  0  0  0  0  0  0  0  0  0
   14.6220   13.7250   18.7450 C   0  0  0  0  0  0  0  0  0  0  0  0
   13.4090   13.0900   18.3980 C   0  0  0  0  0  0  0  0  0  0  0  0
   12.3990   13.8540   18.9580 C   0  0  0  0  0  0  0  0  0  0  0  0
   13.0620   11.9450   17.6730 C   0  0  0  0  0  0  0  0  0  0  0  0
   11.7040   11.6010   17.5400 C   0  0  0  0  0  0  0  0  0  0  0  0
   10.7180   12.3940   18.1370 C   0  0  0  0  0  0  0  0  0  0  0  0
   11.0310   13.5570   18.8650 C   0  0  0  0  0  0  0  0  0  0  0  0
    9.3420   11.8890   17.9010 C   0  0  0  0  0  0  0  0  0  0  0  0
   13.7710    9.9580   16.6500 C   0  0  0  0  0  0  0  0  0  0  0  0
   20.5240   16.7500   19.7270 C   0  0  0  0  0  0  0  0  0  0  0  0
   14.2610   16.5760   16.6270 C   0  0  0  0  0  0  0  0  0  0  0  0
    7.2880   12.5390   20.6440 C   0  0  0  0  0  0  0  0  0  0  0  0
    6.4870   13.1440   19.6470 C   0  0  0  0  0  0  0  0  0  0  0  0
    7.1910   13.0030   18.4750 C   0  0  0  0  0  0  0  0  0  0  0  0
   16.1400   17.9820   15.7780 H   0  0  0  0  0  0  0  0  0  0  0  0
   18.2000   19.1290   16.3350 H   0  0  0  0  0  0  0  0  0  0  0  0
   19.7980   18.2040   17.9080 H   0  0  0  0  0  0  0  0  0  0  0  0
   11.3900   10.7300   16.9810 H   0  0  0  0  0  0  0  0  0  0  0  0
   10.2700   14.1690   19.3370 H   0  0  0  0  0  0  0  0  0  0  0  0
    9.0160   12.1930   16.9050 H   0  0  0  0  0  0  0  0  0  0  0  0
    9.3330   10.8020   17.9650 H   0  0  0  0  0  0  0  0  0  0  0  0
   14.6590    9.3450   16.5220 H   0  0  0  0  0  0  0  0  0  0  0  0
   13.2600   10.0790   15.6940 H   0  0  0  0  0  0  0  0  0  0  0  0
   13.1240    9.4520   17.3700 H   0  0  0  0  0  0  0  0  0  0  0  0
   20.9800   16.3010   20.6110 H   0  0  0  0  0  0  0  0  0  0  0  0
   20.0990   17.7130   20.0120 H   0  0  0  0  0  0  0  0  0  0  0  0
   21.3040   16.8940   18.9750 H   0  0  0  0  0  0  0  0  0  0  0  0
   13.2850   16.0940   16.7660 H   0  0  0  0  0  0  0  0  0  0  0  0
   14.3170   16.9000   15.5880 H   0  0  0  0  0  0  0  0  0  0  0  0
   14.3170   17.4420   17.2890 H   0  0  0  0  0  0  0  0  0  0  0  0
    7.0810   12.4490   21.6990 H   0  0  0  0  0  0  0  0  0  0  0  0
    5.5350   13.6320   19.7730 H   0  0  0  0  0  0  0  0  0  0  0  0
    6.9860   13.2960   17.4570 H   0  0  0  0  0  0  0  0  0  0  0  0
  1 16  4  0  0  0  0
  1 32  1  0  0  0  0
  2  4  1  0  0  0  0
  3  4  2  0  0  0  0
  1  5  4  0  0  0  0
  5  8  4  0  0  0  0
  5 33  1  0  0  0  0
  6 10  4  0  0  0  0
  4  7  2  0  0  0  0
  8 11  4  0  0  0  0
  8 34  1  0  0  0  0
 11 14  4  0  0  0  0
 11 17  1  0  0  0  0
  9 12  4  0  0  0  0
  4 14  1  0  0  0  0
 14 16  4  0  0  0  0
 15 16  1  0  0  0  0
  2 18  1  0  0  0  0
  6 18  4  0  0  0  0
 18 19  4  0  0  0  0
 19 20  4  0  0  0  0
 19 21  4  0  0  0  0
 10 20  4  0  0  0  0
 13 21  1  0  0  0  0
 21 22  4  0  0  0  0
 22 23  4  0  0  0  0
 22 35  1  0  0  0  0
 23 25  1  0  0  0  0
 20 24  4  0  0  0  0
 23 24  4  0  0  0  0
 24 36  1  0  0  0  0
  9 25  1  0  0  0  0
 25 37  1  0  0  0  0
 25 38  1  0  0  0  0
 13 26  1  0  0  0  0
 26 39  1  0  0  0  0
 26 40  1  0  0  0  0
 26 41  1  0  0  0  0
 17 27  1  0  0  0  0
 27 42  1  0  0  0  0
 27 43  1  0  0  0  0
 27 44  1  0  0  0  0
 15 28  1  0  0  0  0
 28 45  1  0  0  0  0
 28 46  1  0  0  0  0
 28 47  1  0  0  0  0
 12 29  4  0  0  0  0
 29 48  1  0  0  0  0
 29 30  4  0  0  0  0
 30 31  4  0  0  0  0
 30 49  1  0  0  0  0
  9 31  4  0  0  0  0
 31 50  1  0  0  0  0
M  END
$$$$
