8W30
  PyMOL3.1          3D                             0

 22 23  0  0  0  0  0  0  0  0999 V2000
    2.8010  114.8640   40.5830 N   0  0  0  0  0  0  0  0  0  0  0  0
    3.4420  115.3040   41.8050 C   0  0  0  0  0  0  0  0  0  0  0  0
    3.7690  116.7870   41.8230 C   0  0  0  0  0  0  0  0  0  0  0  0
    3.6250  117.3800   40.7200 O   0  0  0  0  0  0  0  0  0  0  0  0
    4.7790  114.6250   42.0540 C   0  0  0  0  0  0  0  0  0  0  0  0
    4.5870  113.3250   42.7610 C   0  0  0  0  0  0  0  0  0  0  0  0
    4.6570  113.2550   44.1320 C   0  0  0  0  0  0  0  0  0  0  0  0
    4.3400  112.1770   42.0460 C   0  0  0  0  0  0  0  0  0  0  0  0
    4.4810  112.0530   44.7780 C   0  0  0  0  0  0  0  0  0  0  0  0
    4.1660  110.9730   42.6860 C   0  0  0  0  0  0  0  0  0  0  0  0
    4.2360  110.9090   44.0560 C   0  0  0  0  0  0  0  0  0  0  0  0
    0.1970  116.0080   38.7110 Cl  0  0  0  0  0  0  0  0  0  0  0  0
   -0.1780  111.6610   35.6110 Cl  0  0  0  0  0  0  0  0  0  0  0  0
    4.1420  117.2290   42.9440 O   0  0  0  0  0  0  0  0  0  0  0  0
    1.4030  112.2510   39.2240 C   0  0  0  0  0  0  0  0  0  0  0  0
    0.9950  111.6550   38.0520 C   0  0  0  0  0  0  0  0  0  0  0  0
    0.0960  113.7330   37.2870 C   0  0  0  0  0  0  0  0  0  0  0  0
    1.1550  113.5910   39.4100 C   0  0  0  0  0  0  0  0  0  0  0  0
    0.3430  112.3950   37.0880 C   0  0  0  0  0  0  0  0  0  0  0  0
    0.5050  114.3330   38.4540 C   0  0  0  0  0  0  0  0  0  0  0  0
    1.5780  114.2440   40.6520 C   0  0  0  0  0  0  0  0  0  0  0  0
    0.8580  114.1920   41.6370 O   0  0  0  0  0  0  0  0  0  0  0  0
  1  2  1  0  0  0  0
  2  3  1  0  0  0  0
  3  4  2  0  0  0  0
  2  5  1  0  0  0  0
  5  6  1  0  0  0  0
  6  7  2  0  0  0  0
  6  8  1  0  0  0  0
  7  9  1  0  0  0  0
  8 10  2  0  0  0  0
  9 11  2  0  0  0  0
 10 11  1  0  0  0  0
  3 14  1  0  0  0  0
 15 16  2  0  0  0  0
 15 18  1  0  0  0  0
 13 19  1  0  0  0  0
 16 19  1  0  0  0  0
 17 19  2  0  0  0  0
 12 20  1  0  0  0  0
 17 20  1  0  0  0  0
 18 20  2  0  0  0  0
  1 21  1  0  0  0  0
 18 21  1  0  0  0  0
 21 22  2  0  0  0  0
M  END
$$$$
