6LIL
  PyMOL3.1          3D                             0

 27 31  0  0  0  0  0  0  0  0999 V2000
   26.3000   11.4810  -42.7790 C   0  0  0  0  0  0  0  0  0  0  0  0
   31.6550    8.3130  -40.5830 N   0  0  0  0  0  0  0  0  0  0  0  0
   28.7620   10.3930  -42.0300 O   0  0  0  0  0  0  0  0  0  0  0  0
   25.0730   11.9600  -43.2090 C   0  0  0  0  0  0  0  0  0  0  0  0
   31.9400    9.6180  -40.2730 N   0  0  0  0  0  0  0  0  0  0  0  0
   27.8860   11.2390  -47.2600 O   0  0  0  0  0  0  0  0  0  0  0  0
   24.8460   12.1590  -44.5700 C   0  0  0  0  0  0  0  0  0  0  0  0
   32.1050    6.0160  -37.1560 N   0  0  0  0  0  0  0  0  0  0  0  0
   25.8320   11.8640  -45.4940 C   0  0  0  0  0  0  0  0  0  0  0  0
   27.0690   11.3860  -45.0630 C   0  0  0  0  0  0  0  0  0  0  0  0
   27.3050   11.1840  -43.7010 C   0  0  0  0  0  0  0  0  0  0  0  0
   28.1020   11.0770  -46.0690 C   0  0  0  0  0  0  0  0  0  0  0  0
   29.4130   10.5490  -45.5950 C   0  0  0  0  0  0  0  0  0  0  0  0
   29.6450   10.2960  -44.2190 C   0  0  0  0  0  0  0  0  0  0  0  0
   28.5910   10.6130  -43.2210 C   0  0  0  0  0  0  0  0  0  0  0  0
   30.4180   10.2980  -46.5140 C   0  0  0  0  0  0  0  0  0  0  0  0
   31.6460    9.8460  -46.1170 C   0  0  0  0  0  0  0  0  0  0  0  0
   31.8880    9.5980  -44.7740 C   0  0  0  0  0  0  0  0  0  0  0  0
   30.9150    9.8420  -43.8150 C   0  0  0  0  0  0  0  0  0  0  0  0
   31.2350    9.5030  -42.4230 C   0  0  0  0  0  0  0  0  0  0  0  0
   31.2090    8.1990  -41.8870 C   0  0  0  0  0  0  0  0  0  0  0  0
   31.7090   10.3190  -41.3780 C   0  0  0  0  0  0  0  0  0  0  0  0
   31.8440    7.4540  -39.3840 C   0  0  0  0  0  0  0  0  0  0  0  0
   30.7330    6.4340  -39.1850 C   0  0  0  0  0  0  0  0  0  0  0  0
   30.7470    5.9750  -37.7260 C   0  0  0  0  0  0  0  0  0  0  0  0
   33.1760    5.7540  -38.1390 C   0  0  0  0  0  0  0  0  0  0  0  0
   33.1970    6.7620  -39.2880 C   0  0  0  0  0  0  0  0  0  0  0  0
  1  4  1  0  0  0  0
  2  5  1  0  0  0  0
  4  7  2  0  0  0  0
  7  9  1  0  0  0  0
  9 10  2  0  0  0  0
  1 11  2  0  0  0  0
 10 11  1  0  0  0  0
  6 12  2  0  0  0  0
 10 12  1  0  0  0  0
 12 13  1  0  0  0  0
 13 14  2  0  0  0  0
  3 15  2  0  0  0  0
 11 15  1  0  0  0  0
 14 15  1  0  0  0  0
 13 16  1  0  0  0  0
 16 17  2  0  0  0  0
 17 18  1  0  0  0  0
 14 19  1  0  0  0  0
 18 19  2  0  0  0  0
 19 20  1  0  0  0  0
  2 21  1  0  0  0  0
 20 21  2  0  0  0  0
  5 22  2  0  0  0  0
 20 22  1  0  0  0  0
  2 23  1  0  0  0  0
 23 24  1  0  0  0  0
  8 25  1  0  0  0  0
 24 25  1  0  0  0  0
  8 26  1  0  0  0  0
 23 27  1  0  0  0  0
 26 27  1  0  0  0  0
M  END
$$$$
