7TRQ
  PyMOL3.1          3D                             0

 29 31  0  0  0  0  0  0  0  0999 V2000
  114.0300   88.4590   68.5580 N   0  0  0  0  0  0  0  0  0  0  0  0
  113.2840   89.9700   71.9190 C   0  0  0  0  0  0  0  0  0  0  0  0
  107.8880   87.1080   71.6520 O   0  0  0  0  0  0  0  0  0  0  0  0
  113.0700   89.2090   70.6310 C   0  0  0  0  0  0  0  0  0  0  0  0
  112.9130   87.8110   68.2440 N   0  0  0  0  0  0  0  0  0  0  0  0
  104.8420   81.0400   72.2940 O   0  0  0  0  0  0  0  0  0  0  0  0
  104.2690   81.4120   71.0310 S   0  0  0  0  0  0  0  0  0  0  0  0
  114.1180   89.1390   69.6990 C   0  0  0  0  0  0  0  0  0  0  0  0
  107.4940   87.1710   69.4320 N   0  0  0  0  0  0  0  0  0  0  0  0
  104.4020   80.5410   69.8970 O   0  0  0  0  0  0  0  0  0  0  0  0
  111.8690   87.8480   69.0800 C   0  0  0  0  0  0  0  0  0  0  0  0
  110.2660   88.9370   72.1730 N   0  0  0  0  0  0  0  0  0  0  0  0
  111.8690   88.5290   70.3050 C   0  0  0  0  0  0  0  0  0  0  0  0
  110.5880   88.3980   70.9780 C   0  0  0  0  0  0  0  0  0  0  0  0
  109.6990   87.6310   70.2330 C   0  0  0  0  0  0  0  0  0  0  0  0
  108.2850   87.2750   70.5010 C   0  0  0  0  0  0  0  0  0  0  0  0
  106.0540   86.9950   69.5460 C   0  0  0  0  0  0  0  0  0  0  0  0
  105.6400   85.5910   69.9090 C   0  0  0  0  0  0  0  0  0  0  0  0
  105.6080   84.5790   68.9600 C   0  0  0  0  0  0  0  0  0  0  0  0
  105.1930   83.3010   69.2900 C   0  0  0  0  0  0  0  0  0  0  0  0
  104.8130   83.0310   70.5950 C   0  0  0  0  0  0  0  0  0  0  0  0
  104.8480   84.0220   71.5620 C   0  0  0  0  0  0  0  0  0  0  0  0
  105.2600   85.2930   71.2080 C   0  0  0  0  0  0  0  0  0  0  0  0
  102.4500   81.5180   71.3440 C   0  0  0  0  0  0  0  0  0  0  0  0
  115.4150   89.8640   69.8980 C   0  0  0  0  0  0  0  0  0  0  0  0
  101.7900   80.7160   70.5230 F   0  0  0  0  0  0  0  0  0  0  0  0
  102.1710   81.1600   72.5880 F   0  0  0  0  0  0  0  0  0  0  0  0
  102.0140   82.7550   71.1590 F   0  0  0  0  0  0  0  0  0  0  0  0
  110.3600   87.0610   68.7420 S   0  0  0  0  0  0  0  0  0  0  0  0
  2  4  1  0  0  0  0
  4  8  4  0  0  0  0
  4 13  4  0  0  0  0
  1  5  4  0  0  0  0
  5 11  4  0  0  0  0
  6  7  2  0  0  0  0
  1  8  4  0  0  0  0
  8 25  1  0  0  0  0
  7 10  2  0  0  0  0
 11 29  4  0  0  0  0
 11 13  4  0  0  0  0
 12 14  1  0  0  0  0
 13 14  4  0  0  0  0
 14 15  4  0  0  0  0
 15 29  4  0  0  0  0
  3 16  2  0  0  0  0
  9 16  1  0  0  0  0
 15 16  1  0  0  0  0
  9 17  1  0  0  0  0
 17 18  1  0  0  0  0
 18 19  4  0  0  0  0
 18 23  4  0  0  0  0
 19 20  4  0  0  0  0
 20 21  4  0  0  0  0
  7 21  1  0  0  0  0
 21 22  4  0  0  0  0
 22 23  4  0  0  0  0
  7 24  1  0  0  0  0
 24 26  1  0  0  0  0
 24 27  1  0  0  0  0
 24 28  1  0  0  0  0
M  END
$$$$
