7C7Q
  PyMOL3.1          3D                             0

 23 24  0  0  0  0  0  0  0  0999 V2000
  158.1370  160.2750  132.0800 C   0  0  0  0  0  0  0  0  0  0  0  0
  159.8630  159.8600  129.5830 O   0  0  0  0  0  0  0  0  0  0  0  0
  158.6440  161.3460  131.1120 C   0  0  0  0  0  0  0  0  0  0  0  0
  160.3790  162.0120  126.8620 O   0  0  0  0  0  0  0  0  0  0  0  0
  158.4450  165.2010  130.6670 C   0  0  0  0  0  0  0  0  0  0  0  0
  159.7930  159.1680  127.4230 O   0  0  0  0  0  0  0  0  0  0  0  0
  158.7820  163.7460  130.4480 C   0  0  0  0  0  0  0  0  0  0  0  0
  159.8780  162.0900  129.1400 C   0  0  0  0  0  0  0  0  0  0  0  0
  159.4240  161.1000  130.0090 C   0  0  0  0  0  0  0  0  0  0  0  0
  160.6900  161.4150  128.0530 C   0  0  0  0  0  0  0  0  0  0  0  0
  158.3490  162.7140  131.2900 C   0  0  0  0  0  0  0  0  0  0  0  0
  159.5650  163.4080  129.3460 C   0  0  0  0  0  0  0  0  0  0  0  0
  159.0100  160.1560  133.3240 C   0  0  0  0  0  0  0  0  0  0  0  0
  158.1390  158.8920  131.4610 C   0  0  0  0  0  0  0  0  0  0  0  0
  156.7130  160.5250  132.5610 C   0  0  0  0  0  0  0  0  0  0  0  0
  160.2090  159.9900  128.2810 C   0  0  0  0  0  0  0  0  0  0  0  0
  159.6980  166.0540  130.7910 C   0  0  0  0  0  0  0  0  0  0  0  0
  157.6150  165.4600  131.9300 C   0  0  0  0  0  0  0  0  0  0  0  0
  157.6240  165.7880  129.5300 C   0  0  0  0  0  0  0  0  0  0  0  0
  162.2340  161.2850  128.1410 C   0  0  0  0  0  0  0  0  0  0  0  0
  162.6300  161.2280  129.3670 F   0  0  0  0  0  0  0  0  0  0  0  0
  162.7280  160.2180  127.5400 F   0  0  0  0  0  0  0  0  0  0  0  0
  162.8980  162.3100  127.5950 F   0  0  0  0  0  0  0  0  0  0  0  0
  1  3  1  0  0  0  0
  5  7  1  0  0  0  0
  2  9  1  0  0  0  0
  3  9  2  0  0  0  0
  8  9  1  0  0  0  0
  4 10  1  0  0  0  0
  8 10  1  0  0  0  0
  3 11  1  0  0  0  0
  7 11  2  0  0  0  0
  7 12  1  0  0  0  0
  8 12  2  0  0  0  0
  1 13  1  0  0  0  0
  1 14  1  0  0  0  0
  1 15  1  0  0  0  0
  2 16  1  0  0  0  0
  6 16  2  0  0  0  0
 10 16  1  0  0  0  0
  5 17  1  0  0  0  0
  5 18  1  0  0  0  0
  5 19  1  0  0  0  0
 10 20  1  0  0  0  0
 20 21  1  0  0  0  0
 20 22  1  0  0  0  0
 20 23  1  0  0  0  0
M  END
$$$$
