8BSU
  PyMOL3.1          3D                             0

128144  0  0  0  0  0  0  0  0999 V2000
  -17.9530  -20.4300  -57.1020 C   0  0  0  0  0  0  0  0  0  0  0  0
  -17.5280  -20.2850  -58.4360 C   0  0  0  0  0  0  0  0  0  0  0  0
  -17.9310  -22.8580  -57.3300 C   0  0  0  0  0  0  0  0  0  0  0  0
  -16.1940  -18.8100  -61.3300 C   0  0  0  0  0  0  0  0  0  0  0  0
  -17.7070  -18.9130  -61.5210 C   0  0  0  0  0  0  0  0  0  0  0  0
  -16.1660  -22.5150  -61.1490 C   0  0  0  0  0  0  0  0  0  0  0  0
  -18.1520  -21.7050  -56.5550 C   0  0  0  0  0  0  0  0  0  0  0  0
  -17.2970  -21.4220  -59.2490 C   0  0  0  0  0  0  0  0  0  0  0  0
  -17.5120  -22.7050  -58.6590 C   0  0  0  0  0  0  0  0  0  0  0  0
  -16.8370  -20.1900  -61.5390 C   0  0  0  0  0  0  0  0  0  0  0  0
  -17.0180  -23.7100  -61.1430 N   0  0  0  0  0  0  0  0  0  0  0  0
  -16.8820  -21.3550  -60.5520 N   0  0  0  0  0  0  0  0  0  0  0  0
  -16.0060  -24.8690  -59.0580 O   0  0  0  0  0  0  0  0  0  0  0  0
  -18.4520  -25.0890  -59.4890 O   0  0  0  0  0  0  0  0  0  0  0  0
  -17.2440  -24.1580  -59.5880 S   0  0  0  0  0  0  0  0  0  0  0  0
  -18.5610  -21.8420  -55.2640 F   0  0  0  0  0  0  0  0  0  0  0  0
   -3.8720   29.6450   -8.0990 C   0  0  0  0  0  0  0  0  0  0  0  0
   -3.3990   29.2070   -9.3510 C   0  0  0  0  0  0  0  0  0  0  0  0
   -2.6840   27.8290   -6.9860 C   0  0  0  0  0  0  0  0  0  0  0  0
   -2.5310   28.9810  -12.9600 C   0  0  0  0  0  0  0  0  0  0  0  0
   -3.8880   28.3960  -12.5640 C   0  0  0  0  0  0  0  0  0  0  0  0
   -0.8790   26.7020  -10.6560 C   0  0  0  0  0  0  0  0  0  0  0  0
   -3.5170   28.9620   -6.9270 C   0  0  0  0  0  0  0  0  0  0  0  0
   -2.5620   28.0690   -9.4540 C   0  0  0  0  0  0  0  0  0  0  0  0
   -2.2230   27.3960   -8.2390 C   0  0  0  0  0  0  0  0  0  0  0  0
   -2.5830   27.7260  -12.0770 C   0  0  0  0  0  0  0  0  0  0  0  0
   -1.1140   25.5050   -9.8380 N   0  0  0  0  0  0  0  0  0  0  0  0
   -2.0740   27.5910  -10.6450 N   0  0  0  0  0  0  0  0  0  0  0  0
    0.1930   26.3900   -7.7780 O   0  0  0  0  0  0  0  0  0  0  0  0
   -1.7650   24.8650   -7.4230 O   0  0  0  0  0  0  0  0  0  0  0  0
   -1.1900   25.9900   -8.2820 S   0  0  0  0  0  0  0  0  0  0  0  0
   -3.9770   29.3930   -5.7200 F   0  0  0  0  0  0  0  0  0  0  0  0
   20.6550   21.7260  -40.9980 C   0  0  0  0  0  0  0  0  0  0  0  0
   21.9070   21.7210  -41.6380 C   0  0  0  0  0  0  0  0  0  0  0  0
   20.5080   24.1480  -41.2350 C   0  0  0  0  0  0  0  0  0  0  0  0
   24.9080   20.6040  -43.3850 C   0  0  0  0  0  0  0  0  0  0  0  0
   25.0830   20.7330  -41.8710 C   0  0  0  0  0  0  0  0  0  0  0  0
   24.0720   24.1660  -43.5450 C   0  0  0  0  0  0  0  0  0  0  0  0
   19.9610   22.9270  -40.7980 C   0  0  0  0  0  0  0  0  0  0  0  0
   22.4940   22.9280  -42.0890 C   0  0  0  0  0  0  0  0  0  0  0  0
   21.7600   24.1360  -41.8680 C   0  0  0  0  0  0  0  0  0  0  0  0
   24.8840   21.9980  -42.7390 C   0  0  0  0  0  0  0  0  0  0  0  0
   23.9820   25.4050  -42.7590 N   0  0  0  0  0  0  0  0  0  0  0  0
   23.7150   22.9820  -42.7150 N   0  0  0  0  0  0  0  0  0  0  0  0
   21.6420   26.1270  -43.6360 O   0  0  0  0  0  0  0  0  0  0  0  0
   22.3030   26.7210  -41.2950 O   0  0  0  0  0  0  0  0  0  0  0  0
   22.4080   25.6680  -42.3990 S   0  0  0  0  0  0  0  0  0  0  0  0
   18.7480   22.9190  -40.1800 F   0  0  0  0  0  0  0  0  0  0  0  0
   -7.7460   29.0420   -6.9240 C   0  0  0  0  0  0  0  0  0  0  0  0
   -8.1460   29.1500   -5.5790 C   0  0  0  0  0  0  0  0  0  0  0  0
   -7.8460   26.6080   -6.7920 C   0  0  0  0  0  0  0  0  0  0  0  0
   -9.2750   30.5320   -2.4620 C   0  0  0  0  0  0  0  0  0  0  0  0
   -7.7540   30.3770   -2.4760 C   0  0  0  0  0  0  0  0  0  0  0  0
   -9.4970   26.8620   -2.8980 C   0  0  0  0  0  0  0  0  0  0  0  0
   -7.5990   27.7840   -7.5230 C   0  0  0  0  0  0  0  0  0  0  0  0
   -8.4030   27.9920   -4.8070 C   0  0  0  0  0  0  0  0  0  0  0  0
   -8.2410   26.7240   -5.4510 C   0  0  0  0  0  0  0  0  0  0  0  0
   -8.6610   29.1240   -2.4340 C   0  0  0  0  0  0  0  0  0  0  0  0
   -8.6720   25.6490   -2.9940 N   0  0  0  0  0  0  0  0  0  0  0  0
   -8.7940   28.0320   -3.4940 N   0  0  0  0  0  0  0  0  0  0  0  0
   -9.8470   24.6200   -5.0600 O   0  0  0  0  0  0  0  0  0  0  0  0
   -7.3840   24.2680   -4.7710 O   0  0  0  0  0  0  0  0  0  0  0  0
   -8.5420   25.2450   -4.5740 S   0  0  0  0  0  0  0  0  0  0  0  0
   -7.2160   27.6910   -8.8250 F   0  0  0  0  0  0  0  0  0  0  0  0
  -21.8470  -19.7930  -55.8960 C   0  0  0  0  0  0  0  0  0  0  0  0
  -22.3710  -20.3090  -54.6960 C   0  0  0  0  0  0  0  0  0  0  0  0
  -23.0820  -21.4540  -57.1860 C   0  0  0  0  0  0  0  0  0  0  0  0
  -23.2370  -20.5440  -51.2860 C   0  0  0  0  0  0  0  0  0  0  0  0
  -22.0100  -21.4200  -51.5440 C   0  0  0  0  0  0  0  0  0  0  0  0
  -25.0280  -22.7960  -53.6530 C   0  0  0  0  0  0  0  0  0  0  0  0
  -22.1990  -20.3580  -57.1300 C   0  0  0  0  0  0  0  0  0  0  0  0
  -23.2610  -21.4120  -54.7080 C   0  0  0  0  0  0  0  0  0  0  0  0
  -23.5980  -21.9680  -55.9830 C   0  0  0  0  0  0  0  0  0  0  0  0
  -23.3900  -21.8360  -52.1040 C   0  0  0  0  0  0  0  0  0  0  0  0
  -24.8400  -23.9260  -54.5710 N   0  0  0  0  0  0  0  0  0  0  0  0
  -23.7990  -21.9600  -53.5710 N   0  0  0  0  0  0  0  0  0  0  0  0
  -26.0440  -22.8390  -56.6020 O   0  0  0  0  0  0  0  0  0  0  0  0
  -24.1190  -24.3980  -57.0110 O   0  0  0  0  0  0  0  0  0  0  0  0
  -24.6920  -23.3250  -56.0840 S   0  0  0  0  0  0  0  0  0  0  0  0
  -21.6860  -19.8470  -58.2840 F   0  0  0  0  0  0  0  0  0  0  0  0
  -46.7040  -28.7500  -24.0590 C   0  0  0  0  0  0  0  0  0  0  0  0
  -47.9180  -28.7320  -23.3510 C   0  0  0  0  0  0  0  0  0  0  0  0
  -46.3440  -26.3910  -23.5580 C   0  0  0  0  0  0  0  0  0  0  0  0
  -50.9040  -29.8540  -21.8150 C   0  0  0  0  0  0  0  0  0  0  0  0
  -51.2060  -29.3310  -23.2200 C   0  0  0  0  0  0  0  0  0  0  0  0
  -49.8280  -26.3340  -21.1120 C   0  0  0  0  0  0  0  0  0  0  0  0
  -45.9230  -27.5910  -24.1620 C   0  0  0  0  0  0  0  0  0  0  0  0
  -48.3790  -27.5460  -22.7310 C   0  0  0  0  0  0  0  0  0  0  0  0
  -47.5580  -26.3830  -22.8570 C   0  0  0  0  0  0  0  0  0  0  0  0
  -50.8090  -28.3470  -22.0970 C   0  0  0  0  0  0  0  0  0  0  0  0
  -49.6450  -25.0430  -21.7880 N   0  0  0  0  0  0  0  0  0  0  0  0
  -49.5600  -27.4740  -22.0330 N   0  0  0  0  0  0  0  0  0  0  0  0
  -47.2670  -24.6600  -20.8310 O   0  0  0  0  0  0  0  0  0  0  0  0
  -47.8390  -23.7200  -23.0890 O   0  0  0  0  0  0  0  0  0  0  0  0
  -48.0530  -24.8830  -22.1200 S   0  0  0  0  0  0  0  0  0  0  0  0
  -44.7460  -27.6150  -24.8490 F   0  0  0  0  0  0  0  0  0  0  0  0
   20.1700   21.1170  -36.9800 C   0  0  0  0  0  0  0  0  0  0  0  0
   18.9950   21.4530  -36.2870 C   0  0  0  0  0  0  0  0  0  0  0  0
   21.3300   23.0200  -35.9940 C   0  0  0  0  0  0  0  0  0  0  0  0
   15.6860   21.2640  -34.8860 C   0  0  0  0  0  0  0  0  0  0  0  0
   15.7020   22.0200  -36.2150 C   0  0  0  0  0  0  0  0  0  0  0  0
   17.9550   23.8510  -33.5550 C   0  0  0  0  0  0  0  0  0  0  0  0
   21.3260   21.8910  -36.8350 C   0  0  0  0  0  0  0  0  0  0  0  0
   18.9540   22.5800  -35.4340 C   0  0  0  0  0  0  0  0  0  0  0  0
   20.1510   23.3520  -35.3090 C   0  0  0  0  0  0  0  0  0  0  0  0
   16.3590   22.6410  -34.9620 C   0  0  0  0  0  0  0  0  0  0  0  0
   18.6230   25.1080  -33.9130 N   0  0  0  0  0  0  0  0  0  0  0  0
   17.8340   22.9560  -34.7380 N   0  0  0  0  0  0  0  0  0  0  0  0
   20.9420   24.4100  -32.9910 O   0  0  0  0  0  0  0  0  0  0  0  0
   20.8270   25.9410  -34.9790 O   0  0  0  0  0  0  0  0  0  0  0  0
   20.1770   24.7530  -34.2670 S   0  0  0  0  0  0  0  0  0  0  0  0
   22.4540   21.5470  -37.5130 F   0  0  0  0  0  0  0  0  0  0  0  0
  -46.2980  -28.8740  -28.1630 C   0  0  0  0  0  0  0  0  0  0  0  0
  -45.1040  -28.5000  -28.8070 C   0  0  0  0  0  0  0  0  0  0  0  0
  -47.3360  -26.7560  -28.7910 C   0  0  0  0  0  0  0  0  0  0  0  0
  -41.8650  -28.7090  -30.1630 C   0  0  0  0  0  0  0  0  0  0  0  0
  -41.7500  -28.0230  -28.8000 C   0  0  0  0  0  0  0  0  0  0  0  0
  -43.9350  -25.7480  -31.1220 C   0  0  0  0  0  0  0  0  0  0  0  0
  -47.4020  -28.0120  -28.1560 C   0  0  0  0  0  0  0  0  0  0  0  0
  -44.9950  -27.2450  -29.4550 C   0  0  0  0  0  0  0  0  0  0  0  0
  -46.1400  -26.3870  -29.4280 C   0  0  0  0  0  0  0  0  0  0  0  0
  -42.4070  -27.2830  -29.9860 C   0  0  0  0  0  0  0  0  0  0  0  0
  -44.5080  -24.5230  -30.5530 N   0  0  0  0  0  0  0  0  0  0  0  0
  -43.8570  -26.8230  -30.0960 N   0  0  0  0  0  0  0  0  0  0  0  0
  -46.8910  -24.8790  -31.5000 O   0  0  0  0  0  0  0  0  0  0  0  0
  -46.6080  -23.7370  -29.2810 O   0  0  0  0  0  0  0  0  0  0  0  0
  -46.0750  -24.8270  -30.2120 S   0  0  0  0  0  0  0  0  0  0  0  0
  -48.5520  -28.3910  -27.5320 F   0  0  0  0  0  0  0  0  0  0  0  0
  1  2  1  0  0  0  0
  4  5  1  0  0  0  0
  1  7  2  0  0  0  0
  3  7  1  0  0  0  0
  2  8  2  0  0  0  0
  3  9  2  0  0  0  0
  8  9  1  0  0  0  0
  4 10  1  0  0  0  0
  5 10  1  0  0  0  0
  6 11  1  0  0  0  0
  6 12  1  0  0  0  0
  8 12  1  0  0  0  0
 10 12  1  0  0  0  0
  9 15  1  0  0  0  0
 11 15  1  0  0  0  0
 13 15  2  0  0  0  0
 14 15  2  0  0  0  0
  7 16  1  0  0  0  0
 17 18  1  0  0  0  0
 20 21  1  0  0  0  0
 17 23  2  0  0  0  0
 19 23  1  0  0  0  0
 18 24  2  0  0  0  0
 19 25  2  0  0  0  0
 24 25  1  0  0  0  0
 20 26  1  0  0  0  0
 21 26  1  0  0  0  0
 22 27  1  0  0  0  0
 22 28  1  0  0  0  0
 24 28  1  0  0  0  0
 26 28  1  0  0  0  0
 25 31  1  0  0  0  0
 27 31  1  0  0  0  0
 29 31  2  0  0  0  0
 30 31  2  0  0  0  0
 23 32  1  0  0  0  0
 33 34  1  0  0  0  0
 36 37  1  0  0  0  0
 33 39  2  0  0  0  0
 35 39  1  0  0  0  0
 34 40  2  0  0  0  0
 35 41  2  0  0  0  0
 40 41  1  0  0  0  0
 36 42  1  0  0  0  0
 37 42  1  0  0  0  0
 38 43  1  0  0  0  0
 38 44  1  0  0  0  0
 40 44  1  0  0  0  0
 42 44  1  0  0  0  0
 41 47  1  0  0  0  0
 43 47  1  0  0  0  0
 45 47  2  0  0  0  0
 46 47  2  0  0  0  0
 39 48  1  0  0  0  0
 49 50  1  0  0  0  0
 52 53  1  0  0  0  0
 49 55  2  0  0  0  0
 51 55  1  0  0  0  0
 50 56  2  0  0  0  0
 51 57  2  0  0  0  0
 56 57  1  0  0  0  0
 52 58  1  0  0  0  0
 53 58  1  0  0  0  0
 54 59  1  0  0  0  0
 54 60  1  0  0  0  0
 56 60  1  0  0  0  0
 58 60  1  0  0  0  0
 57 63  1  0  0  0  0
 59 63  1  0  0  0  0
 61 63  2  0  0  0  0
 62 63  2  0  0  0  0
 55 64  1  0  0  0  0
 65 66  1  0  0  0  0
 68 69  1  0  0  0  0
 65 71  2  0  0  0  0
 67 71  1  0  0  0  0
 66 72  2  0  0  0  0
 67 73  2  0  0  0  0
 72 73  1  0  0  0  0
 68 74  1  0  0  0  0
 69 74  1  0  0  0  0
 70 75  1  0  0  0  0
 70 76  1  0  0  0  0
 72 76  1  0  0  0  0
 74 76  1  0  0  0  0
 73 79  1  0  0  0  0
 75 79  1  0  0  0  0
 77 79  2  0  0  0  0
 78 79  2  0  0  0  0
 71 80  1  0  0  0  0
 81 82  1  0  0  0  0
 84 85  1  0  0  0  0
 81 87  2  0  0  0  0
 83 87  1  0  0  0  0
 82 88  2  0  0  0  0
 83 89  2  0  0  0  0
 88 89  1  0  0  0  0
 84 90  1  0  0  0  0
 85 90  1  0  0  0  0
 86 91  1  0  0  0  0
 86 92  1  0  0  0  0
 88 92  1  0  0  0  0
 90 92  1  0  0  0  0
 89 95  1  0  0  0  0
 91 95  1  0  0  0  0
 93 95  2  0  0  0  0
 94 95  2  0  0  0  0
 87 96  1  0  0  0  0
 97 98  1  0  0  0  0
100101  1  0  0  0  0
 97103  2  0  0  0  0
 99103  1  0  0  0  0
 98104  2  0  0  0  0
 99105  2  0  0  0  0
104105  1  0  0  0  0
100106  1  0  0  0  0
101106  1  0  0  0  0
102107  1  0  0  0  0
102108  1  0  0  0  0
104108  1  0  0  0  0
106108  1  0  0  0  0
105111  1  0  0  0  0
107111  1  0  0  0  0
109111  2  0  0  0  0
110111  2  0  0  0  0
103112  1  0  0  0  0
113114  1  0  0  0  0
116117  1  0  0  0  0
113119  2  0  0  0  0
115119  1  0  0  0  0
114120  2  0  0  0  0
115121  2  0  0  0  0
120121  1  0  0  0  0
116122  1  0  0  0  0
117122  1  0  0  0  0
118123  1  0  0  0  0
118124  1  0  0  0  0
120124  1  0  0  0  0
122124  1  0  0  0  0
121127  1  0  0  0  0
123127  1  0  0  0  0
125127  2  0  0  0  0
126127  2  0  0  0  0
119128  1  0  0  0  0
M  END
$$$$
