7L00
  PyMOL3.1          3D                             0

 27 30  0  0  0  0  0  0  0  0999 V2000
   15.0550   14.1950   34.3330 C   0  0  0  0  0  0  0  0  0  0  0  0
   14.2440   15.2830   35.5180 S   0  0  0  0  0  0  0  0  0  0  0  0
   12.4920   15.0880   35.2630 C   0  0  0  0  0  0  0  0  0  0  0  0
   12.0750   15.0260   33.9430 C   0  0  0  0  0  0  0  0  0  0  0  0
   10.7260   14.8580   33.7000 C   0  0  0  0  0  0  0  0  0  0  0  0
    9.8620   14.7600   34.7980 C   0  0  0  0  0  0  0  0  0  0  0  0
   10.3000   14.8170   36.1380 C   0  0  0  0  0  0  0  0  0  0  0  0
   11.6450   14.9820   36.3700 C   0  0  0  0  0  0  0  0  0  0  0  0
    8.4830   14.5900   34.4990 N   0  0  0  0  0  0  0  0  0  0  0  0
    8.3560   14.5890   33.1510 C   0  0  0  0  0  0  0  0  0  0  0  0
    9.8160   14.7530   32.3150 S   0  0  0  0  0  0  0  0  0  0  0  0
    7.0760   14.3590   32.6140 N   0  0  0  0  0  0  0  0  0  0  0  0
    6.9350   14.1060   31.2120 C   0  0  0  0  0  0  0  0  0  0  0  0
    5.5300   13.7780   30.7680 C   0  0  0  0  0  0  0  0  0  0  0  0
    4.8920   14.9670   30.1010 C   0  0  0  0  0  0  0  0  0  0  0  0
    3.8210   15.7820   30.5630 C   0  0  0  0  0  0  0  0  0  0  0  0
    3.5280   16.9230   29.4630 S   0  0  0  0  0  0  0  0  0  0  0  0
    4.6830   16.4910   28.3870 C   0  0  0  0  0  0  0  0  0  0  0  0
    4.9550   17.0930   27.1190 N   0  0  0  0  0  0  0  0  0  0  0  0
    5.1700   16.3640   26.0120 C   0  0  0  0  0  0  0  0  0  0  0  0
    5.3770   17.2630   24.9890 C   0  0  0  0  0  0  0  0  0  0  0  0
    5.2760   18.5220   25.5140 C   0  0  0  0  0  0  0  0  0  0  0  0
    5.0080   18.4090   26.8590 C   0  0  0  0  0  0  0  0  0  0  0  0
    5.3870   15.3940   28.8170 N   0  0  0  0  0  0  0  0  0  0  0  0
    7.8530   14.1580   30.4640 O   0  0  0  0  0  0  0  0  0  0  0  0
   14.6530   16.6890   35.3160 O   0  0  0  0  0  0  0  0  0  0  0  0
   14.6170   14.9780   36.8950 O   0  0  0  0  0  0  0  0  0  0  0  0
  1  2  1  0  0  0  0
  2  3  1  0  0  0  0
  3  4  1  0  0  0  0
  4  5  2  0  0  0  0
  5  6  1  0  0  0  0
  6  7  2  0  0  0  0
  3  8  2  0  0  0  0
  7  8  1  0  0  0  0
  6  9  1  0  0  0  0
  9 10  2  0  0  0  0
  5 11  1  0  0  0  0
 10 11  1  0  0  0  0
 10 12  1  0  0  0  0
 12 13  1  0  0  0  0
 13 14  1  0  0  0  0
 14 15  1  0  0  0  0
 15 16  2  0  0  0  0
 16 17  1  0  0  0  0
 17 18  1  0  0  0  0
 18 19  1  0  0  0  0
 19 20  1  0  0  0  0
 20 21  2  0  0  0  0
 21 22  1  0  0  0  0
 19 23  1  0  0  0  0
 22 23  2  0  0  0  0
 15 24  1  0  0  0  0
 18 24  2  0  0  0  0
 13 25  2  0  0  0  0
  2 26  2  0  0  0  0
  2 27  2  0  0  0  0
M  END
$$$$
