7L00
  PyMOL3.1          3D                             0

 27 30  0  0  0  0  0  0  0  0999 V2000
  -50.4530   -1.6910   26.6560 C   0  0  0  0  0  0  0  0  0  0  0  0
  -50.4070   -0.9330   25.0290 S   0  0  0  0  0  0  0  0  0  0  0  0
  -49.0900   -1.6570   24.0820 C   0  0  0  0  0  0  0  0  0  0  0  0
  -47.9230   -1.8890   24.7860 C   0  0  0  0  0  0  0  0  0  0  0  0
  -46.8720   -2.4540   24.0940 C   0  0  0  0  0  0  0  0  0  0  0  0
  -47.0430   -2.7710   22.7480 C   0  0  0  0  0  0  0  0  0  0  0  0
  -48.2350   -2.5350   22.0520 C   0  0  0  0  0  0  0  0  0  0  0  0
  -49.2870   -1.9660   22.7340 C   0  0  0  0  0  0  0  0  0  0  0  0
  -45.9270   -3.3590   22.0830 N   0  0  0  0  0  0  0  0  0  0  0  0
  -44.9180   -3.4410   22.9870 C   0  0  0  0  0  0  0  0  0  0  0  0
  -45.3400   -2.8900   24.5270 S   0  0  0  0  0  0  0  0  0  0  0  0
  -43.7090   -4.0660   22.5980 N   0  0  0  0  0  0  0  0  0  0  0  0
  -42.7160   -4.3110   23.5970 C   0  0  0  0  0  0  0  0  0  0  0  0
  -41.5040   -5.0710   23.0950 C   0  0  0  0  0  0  0  0  0  0  0  0
  -40.3170   -4.1540   22.9430 C   0  0  0  0  0  0  0  0  0  0  0  0
  -39.6850   -3.6910   21.7530 C   0  0  0  0  0  0  0  0  0  0  0  0
  -38.4550   -2.7200   22.1520 S   0  0  0  0  0  0  0  0  0  0  0  0
  -38.6350   -2.8150   23.7780 C   0  0  0  0  0  0  0  0  0  0  0  0
  -37.8500   -2.2200   24.8160 N   0  0  0  0  0  0  0  0  0  0  0  0
  -37.4390   -0.9490   24.8670 C   0  0  0  0  0  0  0  0  0  0  0  0
  -36.7200   -0.8300   26.0350 C   0  0  0  0  0  0  0  0  0  0  0  0
  -36.7340   -2.0420   26.6680 C   0  0  0  0  0  0  0  0  0  0  0  0
  -37.4530   -2.9160   25.8840 C   0  0  0  0  0  0  0  0  0  0  0  0
  -39.6710   -3.6270   24.1220 N   0  0  0  0  0  0  0  0  0  0  0  0
  -42.8440   -3.9390   24.7290 O   0  0  0  0  0  0  0  0  0  0  0  0
  -50.2180    0.5200   25.1110 O   0  0  0  0  0  0  0  0  0  0  0  0
  -51.6730   -1.1010   24.3110 O   0  0  0  0  0  0  0  0  0  0  0  0
  1  2  1  0  0  0  0
  2  3  1  0  0  0  0
  3  4  1  0  0  0  0
  4  5  2  0  0  0  0
  5  6  1  0  0  0  0
  6  7  2  0  0  0  0
  3  8  2  0  0  0  0
  7  8  1  0  0  0  0
  6  9  1  0  0  0  0
  9 10  2  0  0  0  0
  5 11  1  0  0  0  0
 10 11  1  0  0  0  0
 10 12  1  0  0  0  0
 12 13  1  0  0  0  0
 13 14  1  0  0  0  0
 14 15  1  0  0  0  0
 15 16  2  0  0  0  0
 16 17  1  0  0  0  0
 17 18  1  0  0  0  0
 18 19  1  0  0  0  0
 19 20  1  0  0  0  0
 20 21  2  0  0  0  0
 21 22  1  0  0  0  0
 19 23  1  0  0  0  0
 22 23  2  0  0  0  0
 15 24  1  0  0  0  0
 18 24  2  0  0  0  0
 13 25  2  0  0  0  0
  2 26  2  0  0  0  0
  2 27  2  0  0  0  0
M  END
$$$$
