7L00
  PyMOL3.1          3D                             0

 27 30  0  0  0  0  0  0  0  0999 V2000
  -25.9150    9.8920   -4.2090 C   0  0  0  0  0  0  0  0  0  0  0  0
  -24.7390    8.5140   -4.2560 S   0  0  0  0  0  0  0  0  0  0  0  0
  -25.4590    7.0660   -3.4900 C   0  0  0  0  0  0  0  0  0  0  0  0
  -26.3350    6.3230   -4.2720 C   0  0  0  0  0  0  0  0  0  0  0  0
  -26.9080    5.1790   -3.7320 C   0  0  0  0  0  0  0  0  0  0  0  0
  -26.5710    4.8340   -2.4270 C   0  0  0  0  0  0  0  0  0  0  0  0
  -25.6840    5.5940   -1.6390 C   0  0  0  0  0  0  0  0  0  0  0  0
  -25.1130    6.7260   -2.1830 C   0  0  0  0  0  0  0  0  0  0  0  0
  -27.1910    3.6610   -1.9090 N   0  0  0  0  0  0  0  0  0  0  0  0
  -28.0010    3.1460   -2.8580 C   0  0  0  0  0  0  0  0  0  0  0  0
  -27.9870    4.0340   -4.2820 S   0  0  0  0  0  0  0  0  0  0  0  0
  -28.6780    1.9260   -2.5880 N   0  0  0  0  0  0  0  0  0  0  0  0
  -29.3920    1.2520   -3.6230 C   0  0  0  0  0  0  0  0  0  0  0  0
  -29.9730   -0.0700   -3.1740 C   0  0  0  0  0  0  0  0  0  0  0  0
  -31.4650    0.0790   -3.0310 C   0  0  0  0  0  0  0  0  0  0  0  0
  -32.2210    0.0460   -1.8280 C   0  0  0  0  0  0  0  0  0  0  0  0
  -33.7660    0.2480   -2.2000 S   0  0  0  0  0  0  0  0  0  0  0  0
  -33.6060    0.4040   -3.8280 C   0  0  0  0  0  0  0  0  0  0  0  0
  -34.6230    0.5930   -4.8260 N   0  0  0  0  0  0  0  0  0  0  0  0
  -34.6090   -0.0760   -5.9850 C   0  0  0  0  0  0  0  0  0  0  0  0
  -35.7280    0.3210   -6.6880 C   0  0  0  0  0  0  0  0  0  0  0  0
  -36.3910    1.2470   -5.9270 C   0  0  0  0  0  0  0  0  0  0  0  0
  -35.6900    1.4090   -4.7490 C   0  0  0  0  0  0  0  0  0  0  0  0
  -32.2920    0.2840   -4.2110 N   0  0  0  0  0  0  0  0  0  0  0  0
  -29.5300    1.7010   -4.7250 O   0  0  0  0  0  0  0  0  0  0  0  0
  -23.4620    8.8850   -3.6630 O   0  0  0  0  0  0  0  0  0  0  0  0
  -24.3870    8.1460   -5.6330 O   0  0  0  0  0  0  0  0  0  0  0  0
  1  2  1  0  0  0  0
  2  3  1  0  0  0  0
  3  4  1  0  0  0  0
  4  5  2  0  0  0  0
  5  6  1  0  0  0  0
  6  7  2  0  0  0  0
  3  8  2  0  0  0  0
  7  8  1  0  0  0  0
  6  9  1  0  0  0  0
  9 10  2  0  0  0  0
  5 11  1  0  0  0  0
 10 11  1  0  0  0  0
 10 12  1  0  0  0  0
 12 13  1  0  0  0  0
 13 14  1  0  0  0  0
 14 15  1  0  0  0  0
 15 16  2  0  0  0  0
 16 17  1  0  0  0  0
 17 18  1  0  0  0  0
 18 19  1  0  0  0  0
 19 20  1  0  0  0  0
 20 21  2  0  0  0  0
 21 22  1  0  0  0  0
 19 23  1  0  0  0  0
 22 23  2  0  0  0  0
 15 24  1  0  0  0  0
 18 24  2  0  0  0  0
 13 25  2  0  0  0  0
  2 26  2  0  0  0  0
  2 27  2  0  0  0  0
M  END
$$$$
