7XOV
  PyMOL3.1          3D                             0

 43 47  0  0  0  0  0  0  0  0999 V2000
   85.8940  107.4430   77.7090 Cl  0  0  0  0  0  0  0  0  0  0  0  0
   90.8020  110.1450   70.9710 S   0  0  0  0  0  0  0  0  0  0  0  0
   87.9700  106.8470   72.7190 O   0  0  0  0  0  0  0  0  0  0  0  0
   90.6260  111.8260   68.3140 O   0  0  0  0  0  0  0  0  0  0  0  0
   87.2930  110.2310   77.4850 O   0  0  0  0  0  0  0  0  0  0  0  0
   89.5370  112.5790   65.8660 O   0  0  0  0  0  0  0  0  0  0  0  0
   91.2830  112.1520   64.6320 O   0  0  0  0  0  0  0  0  0  0  0  0
   88.9150  111.0580   72.1560 N   0  0  0  0  0  0  0  0  0  0  0  0
   89.7820  112.6080   70.3390 N   0  0  0  0  0  0  0  0  0  0  0  0
   90.6410  114.6820   67.2020 N   0  0  0  0  0  0  0  0  0  0  0  0
   92.5630  107.4710   74.3220 C   0  0  0  0  0  0  0  0  0  0  0  0
   93.4140  108.3610   73.4190 C   0  0  0  0  0  0  0  0  0  0  0  0
   92.5580  107.9740   75.7590 C   0  0  0  0  0  0  0  0  0  0  0  0
   94.8450  108.4740   73.9460 C   0  0  0  0  0  0  0  0  0  0  0  0
   93.9830  108.0650   76.3040 C   0  0  0  0  0  0  0  0  0  0  0  0
   94.8820  108.9160   75.4050 C   0  0  0  0  0  0  0  0  0  0  0  0
   91.1030  107.4560   73.7910 C   0  0  0  0  0  0  0  0  0  0  0  0
   91.0900  107.7590   72.2610 C   0  0  0  0  0  0  0  0  0  0  0  0
   90.3990  109.1230   72.0220 C   0  0  0  0  0  0  0  0  0  0  0  0
   89.2540  109.6590   72.7460 C   0  0  0  0  0  0  0  0  0  0  0  0
   89.8230  111.3410   71.1050 C   0  0  0  0  0  0  0  0  0  0  0  0
   88.4330  109.0490   73.9250 C   0  0  0  0  0  0  0  0  0  0  0  0
   90.2470  115.9970   67.1020 C   0  0  0  0  0  0  0  0  0  0  0  0
   90.0800  114.1710   68.3510 C   0  0  0  0  0  0  0  0  0  0  0  0
   89.4420  116.2910   68.2050 C   0  0  0  0  0  0  0  0  0  0  0  0
   87.8030  107.6520   73.8610 C   0  0  0  0  0  0  0  0  0  0  0  0
   88.2420  109.9190   75.1670 C   0  0  0  0  0  0  0  0  0  0  0  0
   90.2140  112.7370   68.9400 C   0  0  0  0  0  0  0  0  0  0  0  0
   89.3440  115.1720   68.9700 C   0  0  0  0  0  0  0  0  0  0  0  0
   90.5400  117.1130   66.0340 C   0  0  0  0  0  0  0  0  0  0  0  0
   91.5090  113.9490   66.2440 C   0  0  0  0  0  0  0  0  0  0  0  0
   88.8230  117.7150   68.4000 C   0  0  0  0  0  0  0  0  0  0  0  0
   89.0940  118.7930   67.3860 C   0  0  0  0  0  0  0  0  0  0  0  0
   89.9510  118.4930   66.2070 C   0  0  0  0  0  0  0  0  0  0  0  0
   87.4500  109.4040   76.3450 C   0  0  0  0  0  0  0  0  0  0  0  0
   86.9990  107.1370   75.0650 C   0  0  0  0  0  0  0  0  0  0  0  0
   91.4170  116.8040   64.8270 C   0  0  0  0  0  0  0  0  0  0  0  0
   86.8270  108.0200   76.2990 C   0  0  0  0  0  0  0  0  0  0  0  0
   88.4860  120.1810   67.5800 C   0  0  0  0  0  0  0  0  0  0  0  0
   90.7280  112.8260   65.5380 C   0  0  0  0  0  0  0  0  0  0  0  0
   87.1440  107.2110   71.6400 C   0  0  0  0  0  0  0  0  0  0  0  0
   87.4290  111.6070   77.1770 C   0  0  0  0  0  0  0  0  0  0  0  0
   89.4910  113.3100   70.7360 H   0  0  0  0  0  0  0  0  0  0  0  0
  9 43  1  0  0  0  0
 11 12  1  0  0  0  0
 12 14  1  0  0  0  0
 11 13  1  0  0  0  0
 13 15  1  0  0  0  0
 14 16  1  0  0  0  0
 15 16  1  0  0  0  0
 11 17  1  0  0  0  0
 17 18  1  0  0  0  0
 18 19  1  0  0  0  0
  2 19  4  0  0  0  0
  8 20  4  0  0  0  0
 19 20  4  0  0  0  0
 20 22  1  0  0  0  0
  2 21  4  0  0  0  0
  8 21  4  0  0  0  0
  9 21  1  0  0  0  0
 22 26  4  0  0  0  0
 22 27  4  0  0  0  0
 10 23  4  0  0  0  0
 23 25  4  0  0  0  0
 23 30  4  0  0  0  0
 10 24  4  0  0  0  0
 24 28  1  0  0  0  0
 24 29  4  0  0  0  0
 25 29  4  0  0  0  0
 25 32  4  0  0  0  0
  3 26  1  0  0  0  0
 26 36  4  0  0  0  0
 27 35  4  0  0  0  0
  4 28  2  0  0  0  0
  9 28  1  0  0  0  0
 30 34  4  0  0  0  0
 30 37  1  0  0  0  0
 10 31  1  0  0  0  0
 31 40  1  0  0  0  0
 32 33  4  0  0  0  0
 33 34  4  0  0  0  0
 33 39  1  0  0  0  0
  5 35  1  0  0  0  0
 35 38  4  0  0  0  0
 36 38  4  0  0  0  0
  1 38  1  0  0  0  0
  6 40  4  0  0  0  0
  7 40  4  0  0  0  0
  3 41  1  0  0  0  0
  5 42  1  0  0  0  0
M  END
$$$$
