8F1C
  PyMOL3.1          3D                             0

204220  0  0  0  0  0  0  0  0999 V2000
   99.8190   98.1110  107.7760 Cl  0  0  0  0  0  0  0  0  0  0  0  0
  100.0390   97.6530  104.7400 C   0  0  0  0  0  0  0  0  0  0  0  0
  101.0570   98.5760  105.3580 C   0  0  0  0  0  0  0  0  0  0  0  0
  102.0630   99.2010  104.5910 C   0  0  0  0  0  0  0  0  0  0  0  0
  102.9540  100.0390  105.2660 C   0  0  0  0  0  0  0  0  0  0  0  0
  102.9330  100.2960  106.5910 N   0  0  0  0  0  0  0  0  0  0  0  0
  101.9630   99.6870  107.3040 C   0  0  0  0  0  0  0  0  0  0  0  0
  101.0150   98.8320  106.7460 C   0  0  0  0  0  0  0  0  0  0  0  0
  101.8850   99.9110  108.6730 O   0  0  0  0  0  0  0  0  0  0  0  0
  102.7880  100.7670  109.2440 C   0  0  0  0  0  0  0  0  0  0  0  0
  102.8080  102.1340  108.9410 C   0  0  0  0  0  0  0  0  0  0  0  0
  103.7440  102.9800  109.5500 C   0  0  0  0  0  0  0  0  0  0  0  0
  104.6640  102.4740  110.4680 C   0  0  0  0  0  0  0  0  0  0  0  0
  104.6190  101.1250  110.7490 C   0  0  0  0  0  0  0  0  0  0  0  0
  103.7010  100.2700  110.1560 C   0  0  0  0  0  0  0  0  0  0  0  0
  103.9190   98.8870  110.6770 C   0  0  0  0  0  0  0  0  0  0  0  0
  105.3080   99.1040  111.3110 C   0  0  0  0  0  0  0  0  0  0  0  0
  105.4650  100.5070  111.6310 O   0  0  0  0  0  0  0  0  0  0  0  0
  102.8700   98.5370  111.7350 C   0  0  0  0  0  0  0  0  0  0  0  0
  103.9650   97.7880  109.6220 C   0  0  0  0  0  0  0  0  0  0  0  0
  102.2080   99.0320  103.1990 N   0  0  0  0  0  0  0  0  0  0  0  0
  103.3870   98.5590  102.5840 C   0  0  0  0  0  0  0  0  0  0  0  0
  103.1520   98.5370  101.2290 C   0  0  0  0  0  0  0  0  0  0  0  0
  104.1440   98.1120  100.4050 C   0  0  0  0  0  0  0  0  0  0  0  0
  105.3320   97.7160  100.9060 N   0  0  0  0  0  0  0  0  0  0  0  0
  105.4780   97.7700  102.2590 C   0  0  0  0  0  0  0  0  0  0  0  0
  104.5410   98.1810  103.1440 N   0  0  0  0  0  0  0  0  0  0  0  0
  106.7950   97.3310  102.8130 C   0  0  0  0  0  0  0  0  0  0  0  0
  101.8690   98.9840  100.9610 N   0  0  0  0  0  0  0  0  0  0  0  0
  101.2480   99.3080  102.1850 C   0  0  0  0  0  0  0  0  0  0  0  0
  100.1060   99.7330  102.2970 O   0  0  0  0  0  0  0  0  0  0  0  0
  101.4500   99.0660  100.0450 H   0  0  0  0  0  0  0  0  0  0  0  0
  102.1020  102.5500  108.2280 H   0  0  0  0  0  0  0  0  0  0  0  0
  103.7530  104.0390  109.3060 H   0  0  0  0  0  0  0  0  0  0  0  0
  105.3900  103.1220  110.9430 H   0  0  0  0  0  0  0  0  0  0  0  0
  104.0350   98.0660   99.3310 H   0  0  0  0  0  0  0  0  0  0  0  0
  103.7550  100.5560  104.7440 H   0  0  0  0  0  0  0  0  0  0  0  0
  106.1200   98.8430  110.6210 H   0  0  0  0  0  0  0  0  0  0  0  0
  105.4460   98.5170  112.2240 H   0  0  0  0  0  0  0  0  0  0  0  0
  102.8060   97.4510  111.8660 H   0  0  0  0  0  0  0  0  0  0  0  0
  103.1090   98.9760  112.7100 H   0  0  0  0  0  0  0  0  0  0  0  0
  101.8780   98.8980  111.4450 H   0  0  0  0  0  0  0  0  0  0  0  0
  104.2770   96.8390  110.0690 H   0  0  0  0  0  0  0  0  0  0  0  0
  102.9840   97.6280  109.1670 H   0  0  0  0  0  0  0  0  0  0  0  0
  104.6680   98.0290  108.8170 H   0  0  0  0  0  0  0  0  0  0  0  0
  107.1140   97.9990  103.6180 H   0  0  0  0  0  0  0  0  0  0  0  0
  106.7020   96.3180  103.2120 H   0  0  0  0  0  0  0  0  0  0  0  0
  107.5610   97.3370  102.0340 H   0  0  0  0  0  0  0  0  0  0  0  0
   99.8200   96.8080  105.3980 H   0  0  0  0  0  0  0  0  0  0  0  0
   99.1120   98.1910  104.5350 H   0  0  0  0  0  0  0  0  0  0  0  0
  100.4070   97.1910  103.8200 H   0  0  0  0  0  0  0  0  0  0  0  0
  143.7970   99.8140  107.7800 Cl  0  0  0  0  0  0  0  0  0  0  0  0
  144.2550  100.0340  104.7440 C   0  0  0  0  0  0  0  0  0  0  0  0
  143.3320  101.0520  105.3620 C   0  0  0  0  0  0  0  0  0  0  0  0
  142.7080  102.0580  104.5950 C   0  0  0  0  0  0  0  0  0  0  0  0
  141.8700  102.9500  105.2710 C   0  0  0  0  0  0  0  0  0  0  0  0
  141.6120  102.9290  106.5950 N   0  0  0  0  0  0  0  0  0  0  0  0
  142.2220  101.9580  107.3080 C   0  0  0  0  0  0  0  0  0  0  0  0
  143.0770  101.0100  106.7500 C   0  0  0  0  0  0  0  0  0  0  0  0
  141.9970  101.8800  108.6770 O   0  0  0  0  0  0  0  0  0  0  0  0
  141.1420  102.7840  109.2480 C   0  0  0  0  0  0  0  0  0  0  0  0
  139.7750  102.8040  108.9460 C   0  0  0  0  0  0  0  0  0  0  0  0
  138.9290  103.7410  109.5550 C   0  0  0  0  0  0  0  0  0  0  0  0
  139.4350  104.6600  110.4720 C   0  0  0  0  0  0  0  0  0  0  0  0
  140.7840  104.6140  110.7530 C   0  0  0  0  0  0  0  0  0  0  0  0
  141.6390  103.6960  110.1610 C   0  0  0  0  0  0  0  0  0  0  0  0
  143.0220  103.9130  110.6810 C   0  0  0  0  0  0  0  0  0  0  0  0
  142.8050  105.3030  111.3150 C   0  0  0  0  0  0  0  0  0  0  0  0
  141.4020  105.4610  111.6360 O   0  0  0  0  0  0  0  0  0  0  0  0
  143.3720  102.8650  111.7390 C   0  0  0  0  0  0  0  0  0  0  0  0
  144.1210  103.9590  109.6260 C   0  0  0  0  0  0  0  0  0  0  0  0
  142.8760  102.2030  103.2040 N   0  0  0  0  0  0  0  0  0  0  0  0
  143.3500  103.3820  102.5880 C   0  0  0  0  0  0  0  0  0  0  0  0
  143.3710  103.1470  101.2330 C   0  0  0  0  0  0  0  0  0  0  0  0
  143.7970  104.1380  100.4100 C   0  0  0  0  0  0  0  0  0  0  0  0
  144.1940  105.3270  100.9110 N   0  0  0  0  0  0  0  0  0  0  0  0
  144.1390  105.4730  102.2630 C   0  0  0  0  0  0  0  0  0  0  0  0
  143.7290  104.5360  103.1490 N   0  0  0  0  0  0  0  0  0  0  0  0
  144.5790  106.7890  102.8180 C   0  0  0  0  0  0  0  0  0  0  0  0
  142.9240  101.8640  100.9650 N   0  0  0  0  0  0  0  0  0  0  0  0
  142.6000  101.2430  102.1900 C   0  0  0  0  0  0  0  0  0  0  0  0
  142.1750  100.1010  102.3020 O   0  0  0  0  0  0  0  0  0  0  0  0
  142.8420  101.4450  100.0490 H   0  0  0  0  0  0  0  0  0  0  0  0
  139.3580  102.0980  108.2320 H   0  0  0  0  0  0  0  0  0  0  0  0
  137.8700  103.7500  109.3110 H   0  0  0  0  0  0  0  0  0  0  0  0
  138.7870  105.3860  110.9470 H   0  0  0  0  0  0  0  0  0  0  0  0
  143.8430  104.0300   99.3360 H   0  0  0  0  0  0  0  0  0  0  0  0
  141.3530  103.7510  104.7480 H   0  0  0  0  0  0  0  0  0  0  0  0
  143.0670  106.1150  110.6260 H   0  0  0  0  0  0  0  0  0  0  0  0
  143.3930  105.4400  112.2290 H   0  0  0  0  0  0  0  0  0  0  0  0
  144.4570  102.8000  111.8710 H   0  0  0  0  0  0  0  0  0  0  0  0
  142.9330  103.1030  112.7140 H   0  0  0  0  0  0  0  0  0  0  0  0
  143.0100  101.8730  111.4500 H   0  0  0  0  0  0  0  0  0  0  0  0
  145.0700  104.2710  110.0730 H   0  0  0  0  0  0  0  0  0  0  0  0
  144.2810  102.9780  109.1710 H   0  0  0  0  0  0  0  0  0  0  0  0
  143.8800  104.6620  108.8220 H   0  0  0  0  0  0  0  0  0  0  0  0
  143.9110  107.1090  103.6230 H   0  0  0  0  0  0  0  0  0  0  0  0
  145.5920  106.6970  103.2170 H   0  0  0  0  0  0  0  0  0  0  0  0
  144.5730  107.5550  102.0380 H   0  0  0  0  0  0  0  0  0  0  0  0
  145.0990   99.8140  105.4030 H   0  0  0  0  0  0  0  0  0  0  0  0
  143.7170   99.1070  104.5390 H   0  0  0  0  0  0  0  0  0  0  0  0
  144.7170  100.4010  103.8250 H   0  0  0  0  0  0  0  0  0  0  0  0
  142.1050  143.8000  107.7790 Cl  0  0  0  0  0  0  0  0  0  0  0  0
  141.8850  144.2580  104.7430 C   0  0  0  0  0  0  0  0  0  0  0  0
  140.8670  143.3350  105.3610 C   0  0  0  0  0  0  0  0  0  0  0  0
  139.8600  142.7110  104.5940 C   0  0  0  0  0  0  0  0  0  0  0  0
  138.9690  141.8730  105.2700 C   0  0  0  0  0  0  0  0  0  0  0  0
  138.9900  141.6150  106.5940 N   0  0  0  0  0  0  0  0  0  0  0  0
  139.9600  142.2250  107.3070 C   0  0  0  0  0  0  0  0  0  0  0  0
  140.9090  143.0790  106.7490 C   0  0  0  0  0  0  0  0  0  0  0  0
  140.0380  142.0000  108.6760 O   0  0  0  0  0  0  0  0  0  0  0  0
  139.1350  141.1450  109.2480 C   0  0  0  0  0  0  0  0  0  0  0  0
  139.1150  139.7780  108.9450 C   0  0  0  0  0  0  0  0  0  0  0  0
  138.1780  138.9310  109.5540 C   0  0  0  0  0  0  0  0  0  0  0  0
  137.2600  139.4380  110.4710 C   0  0  0  0  0  0  0  0  0  0  0  0
  137.3050  140.7870  110.7530 C   0  0  0  0  0  0  0  0  0  0  0  0
  138.2220  141.6420  110.1600 C   0  0  0  0  0  0  0  0  0  0  0  0
  138.0050  143.0240  110.6810 C   0  0  0  0  0  0  0  0  0  0  0  0
  136.6160  142.8080  111.3150 C   0  0  0  0  0  0  0  0  0  0  0  0
  136.4580  141.4050  111.6350 O   0  0  0  0  0  0  0  0  0  0  0  0
  139.0540  143.3750  111.7380 C   0  0  0  0  0  0  0  0  0  0  0  0
  137.9590  144.1240  109.6260 C   0  0  0  0  0  0  0  0  0  0  0  0
  139.7150  142.8790  103.2030 N   0  0  0  0  0  0  0  0  0  0  0  0
  138.5360  143.3530  102.5870 C   0  0  0  0  0  0  0  0  0  0  0  0
  138.7720  143.3740  101.2330 C   0  0  0  0  0  0  0  0  0  0  0  0
  137.7800  143.8000  100.4090 C   0  0  0  0  0  0  0  0  0  0  0  0
  136.5920  144.1960  100.9100 N   0  0  0  0  0  0  0  0  0  0  0  0
  136.4450  144.1420  102.2630 C   0  0  0  0  0  0  0  0  0  0  0  0
  137.3830  143.7310  103.1480 N   0  0  0  0  0  0  0  0  0  0  0  0
  135.1290  144.5810  102.8170 C   0  0  0  0  0  0  0  0  0  0  0  0
  140.0540  142.9270  100.9640 N   0  0  0  0  0  0  0  0  0  0  0  0
  140.6760  142.6030  102.1890 C   0  0  0  0  0  0  0  0  0  0  0  0
  141.8170  142.1780  102.3010 O   0  0  0  0  0  0  0  0  0  0  0  0
  140.4740  142.8450  100.0480 H   0  0  0  0  0  0  0  0  0  0  0  0
  139.8210  139.3610  108.2310 H   0  0  0  0  0  0  0  0  0  0  0  0
  138.1690  137.8730  109.3100 H   0  0  0  0  0  0  0  0  0  0  0  0
  136.5330  138.7900  110.9470 H   0  0  0  0  0  0  0  0  0  0  0  0
  137.8890  143.8450   99.3350 H   0  0  0  0  0  0  0  0  0  0  0  0
  138.1680  141.3560  104.7470 H   0  0  0  0  0  0  0  0  0  0  0  0
  135.8040  143.0700  110.6250 H   0  0  0  0  0  0  0  0  0  0  0  0
  136.4780  143.3950  112.2280 H   0  0  0  0  0  0  0  0  0  0  0  0
  139.1180  144.4600  111.8700 H   0  0  0  0  0  0  0  0  0  0  0  0
  138.8150  142.9360  112.7140 H   0  0  0  0  0  0  0  0  0  0  0  0
  140.0460  143.0130  111.4490 H   0  0  0  0  0  0  0  0  0  0  0  0
  137.6470  145.0730  110.0720 H   0  0  0  0  0  0  0  0  0  0  0  0
  138.9410  144.2840  109.1700 H   0  0  0  0  0  0  0  0  0  0  0  0
  137.2570  143.8830  108.8210 H   0  0  0  0  0  0  0  0  0  0  0  0
  134.8100  143.9140  103.6220 H   0  0  0  0  0  0  0  0  0  0  0  0
  135.2220  145.5950  103.2160 H   0  0  0  0  0  0  0  0  0  0  0  0
  134.3630  144.5760  102.0380 H   0  0  0  0  0  0  0  0  0  0  0  0
  142.1040  145.1020  105.4020 H   0  0  0  0  0  0  0  0  0  0  0  0
  142.8110  143.7200  104.5380 H   0  0  0  0  0  0  0  0  0  0  0  0
  141.5170  144.7200  103.8240 H   0  0  0  0  0  0  0  0  0  0  0  0
   98.1200  142.1060  107.7770 Cl  0  0  0  0  0  0  0  0  0  0  0  0
   97.6620  141.8850  104.7410 C   0  0  0  0  0  0  0  0  0  0  0  0
   98.5850  140.8670  105.3590 C   0  0  0  0  0  0  0  0  0  0  0  0
   99.2100  139.8610  104.5920 C   0  0  0  0  0  0  0  0  0  0  0  0
  100.0480  138.9690  105.2680 C   0  0  0  0  0  0  0  0  0  0  0  0
  100.3050  138.9910  106.5920 N   0  0  0  0  0  0  0  0  0  0  0  0
   99.6960  139.9610  107.3050 C   0  0  0  0  0  0  0  0  0  0  0  0
   98.8410  140.9090  106.7470 C   0  0  0  0  0  0  0  0  0  0  0  0
   99.9200  140.0390  108.6740 O   0  0  0  0  0  0  0  0  0  0  0  0
  100.7760  139.1360  109.2460 C   0  0  0  0  0  0  0  0  0  0  0  0
  102.1430  139.1160  108.9430 C   0  0  0  0  0  0  0  0  0  0  0  0
  102.9890  138.1790  109.5520 C   0  0  0  0  0  0  0  0  0  0  0  0
  102.4820  137.2600  110.4690 C   0  0  0  0  0  0  0  0  0  0  0  0
  101.1330  137.3050  110.7510 C   0  0  0  0  0  0  0  0  0  0  0  0
  100.2790  138.2230  110.1580 C   0  0  0  0  0  0  0  0  0  0  0  0
   98.8960  138.0060  110.6790 C   0  0  0  0  0  0  0  0  0  0  0  0
   99.1120  136.6160  111.3130 C   0  0  0  0  0  0  0  0  0  0  0  0
  100.5150  136.4590  111.6330 O   0  0  0  0  0  0  0  0  0  0  0  0
   98.5460  139.0550  111.7360 C   0  0  0  0  0  0  0  0  0  0  0  0
   97.7960  137.9600  109.6240 C   0  0  0  0  0  0  0  0  0  0  0  0
   99.0410  139.7160  103.2010 N   0  0  0  0  0  0  0  0  0  0  0  0
   98.5670  138.5370  102.5850 C   0  0  0  0  0  0  0  0  0  0  0  0
   98.5460  138.7720  101.2310 C   0  0  0  0  0  0  0  0  0  0  0  0
   98.1200  137.7800  100.4070 C   0  0  0  0  0  0  0  0  0  0  0  0
   97.7240  136.5920  100.9080 N   0  0  0  0  0  0  0  0  0  0  0  0
   97.7780  136.4460  102.2610 C   0  0  0  0  0  0  0  0  0  0  0  0
   98.1890  137.3830  103.1460 N   0  0  0  0  0  0  0  0  0  0  0  0
   97.3390  135.1290  102.8150 C   0  0  0  0  0  0  0  0  0  0  0  0
   98.9930  140.0540  100.9620 N   0  0  0  0  0  0  0  0  0  0  0  0
   99.3170  140.6760  102.1870 C   0  0  0  0  0  0  0  0  0  0  0  0
   99.7430  141.8180  102.2990 O   0  0  0  0  0  0  0  0  0  0  0  0
   99.0750  140.4740  100.0460 H   0  0  0  0  0  0  0  0  0  0  0  0
  102.5590  139.8210  108.2290 H   0  0  0  0  0  0  0  0  0  0  0  0
  104.0470  138.1700  109.3080 H   0  0  0  0  0  0  0  0  0  0  0  0
  103.1300  136.5340  110.9450 H   0  0  0  0  0  0  0  0  0  0  0  0
   98.0750  137.8890   99.3330 H   0  0  0  0  0  0  0  0  0  0  0  0
  100.5640  138.1680  104.7460 H   0  0  0  0  0  0  0  0  0  0  0  0
   98.8510  135.8050  110.6230 H   0  0  0  0  0  0  0  0  0  0  0  0
   98.5250  136.4790  112.2260 H   0  0  0  0  0  0  0  0  0  0  0  0
   97.4600  139.1190  111.8680 H   0  0  0  0  0  0  0  0  0  0  0  0
   98.9850  138.8160  112.7120 H   0  0  0  0  0  0  0  0  0  0  0  0
   98.9070  140.0470  111.4470 H   0  0  0  0  0  0  0  0  0  0  0  0
   96.8470  137.6480  110.0710 H   0  0  0  0  0  0  0  0  0  0  0  0
   97.6360  138.9410  109.1680 H   0  0  0  0  0  0  0  0  0  0  0  0
   98.0370  137.2570  108.8190 H   0  0  0  0  0  0  0  0  0  0  0  0
   98.0060  134.8100  103.6200 H   0  0  0  0  0  0  0  0  0  0  0  0
   96.3260  135.2220  103.2140 H   0  0  0  0  0  0  0  0  0  0  0  0
   97.3440  134.3630  102.0360 H   0  0  0  0  0  0  0  0  0  0  0  0
   96.8180  142.1050  105.3990 H   0  0  0  0  0  0  0  0  0  0  0  0
   98.2000  142.8120  104.5360 H   0  0  0  0  0  0  0  0  0  0  0  0
   97.2010  141.5180  103.8210 H   0  0  0  0  0  0  0  0  0  0  0  0
  2  3  1  0  0  0  0
  3  4  1  0  0  0  0
  4  5  2  0  0  0  0
  5  6  1  0  0  0  0
  6  7  2  0  0  0  0
  1  8  1  0  0  0  0
  3  8  2  0  0  0  0
  7  8  1  0  0  0  0
  7  9  1  0  0  0  0
  9 10  1  0  0  0  0
 10 11  2  0  0  0  0
 11 12  1  0  0  0  0
 12 13  2  0  0  0  0
 13 14  1  0  0  0  0
 10 15  1  0  0  0  0
 14 15  2  0  0  0  0
 15 16  1  0  0  0  0
 16 17  1  0  0  0  0
 14 18  1  0  0  0  0
 17 18  1  0  0  0  0
 16 19  1  0  0  0  0
 16 20  1  0  0  0  0
  4 21  1  0  0  0  0
 21 22  1  0  0  0  0
 22 23  2  0  0  0  0
 23 24  1  0  0  0  0
 24 25  2  0  0  0  0
 25 26  1  0  0  0  0
 22 27  1  0  0  0  0
 26 27  2  0  0  0  0
 26 28  1  0  0  0  0
 23 29  1  0  0  0  0
 21 30  1  0  0  0  0
 29 30  1  0  0  0  0
 30 31  2  0  0  0  0
 29 32  1  0  0  0  0
 11 33  1  0  0  0  0
 12 34  1  0  0  0  0
 13 35  1  0  0  0  0
 24 36  1  0  0  0  0
  5 37  1  0  0  0  0
 17 38  1  0  0  0  0
 17 39  1  0  0  0  0
 19 40  1  0  0  0  0
 19 41  1  0  0  0  0
 19 42  1  0  0  0  0
 20 43  1  0  0  0  0
 20 44  1  0  0  0  0
 20 45  1  0  0  0  0
 28 46  1  0  0  0  0
 28 47  1  0  0  0  0
 28 48  1  0  0  0  0
  2 49  1  0  0  0  0
  2 50  1  0  0  0  0
  2 51  1  0  0  0  0
 53 54  1  0  0  0  0
 54 55  1  0  0  0  0
 55 56  2  0  0  0  0
 56 57  1  0  0  0  0
 57 58  2  0  0  0  0
 52 59  1  0  0  0  0
 54 59  2  0  0  0  0
 58 59  1  0  0  0  0
 58 60  1  0  0  0  0
 60 61  1  0  0  0  0
 61 62  2  0  0  0  0
 62 63  1  0  0  0  0
 63 64  2  0  0  0  0
 64 65  1  0  0  0  0
 61 66  1  0  0  0  0
 65 66  2  0  0  0  0
 66 67  1  0  0  0  0
 67 68  1  0  0  0  0
 65 69  1  0  0  0  0
 68 69  1  0  0  0  0
 67 70  1  0  0  0  0
 67 71  1  0  0  0  0
 55 72  1  0  0  0  0
 72 73  1  0  0  0  0
 73 74  2  0  0  0  0
 74 75  1  0  0  0  0
 75 76  2  0  0  0  0
 76 77  1  0  0  0  0
 73 78  1  0  0  0  0
 77 78  2  0  0  0  0
 77 79  1  0  0  0  0
 74 80  1  0  0  0  0
 72 81  1  0  0  0  0
 80 81  1  0  0  0  0
 81 82  2  0  0  0  0
 80 83  1  0  0  0  0
 62 84  1  0  0  0  0
 63 85  1  0  0  0  0
 64 86  1  0  0  0  0
 75 87  1  0  0  0  0
 56 88  1  0  0  0  0
 68 89  1  0  0  0  0
 68 90  1  0  0  0  0
 70 91  1  0  0  0  0
 70 92  1  0  0  0  0
 70 93  1  0  0  0  0
 71 94  1  0  0  0  0
 71 95  1  0  0  0  0
 71 96  1  0  0  0  0
 79 97  1  0  0  0  0
 79 98  1  0  0  0  0
 79 99  1  0  0  0  0
 53100  1  0  0  0  0
 53101  1  0  0  0  0
 53102  1  0  0  0  0
104105  1  0  0  0  0
105106  1  0  0  0  0
106107  2  0  0  0  0
107108  1  0  0  0  0
108109  2  0  0  0  0
103110  1  0  0  0  0
105110  2  0  0  0  0
109110  1  0  0  0  0
109111  1  0  0  0  0
111112  1  0  0  0  0
112113  2  0  0  0  0
113114  1  0  0  0  0
114115  2  0  0  0  0
115116  1  0  0  0  0
112117  1  0  0  0  0
116117  2  0  0  0  0
117118  1  0  0  0  0
118119  1  0  0  0  0
116120  1  0  0  0  0
119120  1  0  0  0  0
118121  1  0  0  0  0
118122  1  0  0  0  0
106123  1  0  0  0  0
123124  1  0  0  0  0
124125  2  0  0  0  0
125126  1  0  0  0  0
126127  2  0  0  0  0
127128  1  0  0  0  0
124129  1  0  0  0  0
128129  2  0  0  0  0
128130  1  0  0  0  0
125131  1  0  0  0  0
123132  1  0  0  0  0
131132  1  0  0  0  0
132133  2  0  0  0  0
131134  1  0  0  0  0
113135  1  0  0  0  0
114136  1  0  0  0  0
115137  1  0  0  0  0
126138  1  0  0  0  0
107139  1  0  0  0  0
119140  1  0  0  0  0
119141  1  0  0  0  0
121142  1  0  0  0  0
121143  1  0  0  0  0
121144  1  0  0  0  0
122145  1  0  0  0  0
122146  1  0  0  0  0
122147  1  0  0  0  0
130148  1  0  0  0  0
130149  1  0  0  0  0
130150  1  0  0  0  0
104151  1  0  0  0  0
104152  1  0  0  0  0
104153  1  0  0  0  0
155156  1  0  0  0  0
156157  1  0  0  0  0
157158  2  0  0  0  0
158159  1  0  0  0  0
159160  2  0  0  0  0
154161  1  0  0  0  0
156161  2  0  0  0  0
160161  1  0  0  0  0
160162  1  0  0  0  0
162163  1  0  0  0  0
163164  2  0  0  0  0
164165  1  0  0  0  0
165166  2  0  0  0  0
166167  1  0  0  0  0
163168  1  0  0  0  0
167168  2  0  0  0  0
168169  1  0  0  0  0
169170  1  0  0  0  0
167171  1  0  0  0  0
170171  1  0  0  0  0
169172  1  0  0  0  0
169173  1  0  0  0  0
157174  1  0  0  0  0
174175  1  0  0  0  0
175176  2  0  0  0  0
176177  1  0  0  0  0
177178  2  0  0  0  0
178179  1  0  0  0  0
175180  1  0  0  0  0
179180  2  0  0  0  0
179181  1  0  0  0  0
176182  1  0  0  0  0
174183  1  0  0  0  0
182183  1  0  0  0  0
183184  2  0  0  0  0
182185  1  0  0  0  0
164186  1  0  0  0  0
165187  1  0  0  0  0
166188  1  0  0  0  0
177189  1  0  0  0  0
158190  1  0  0  0  0
170191  1  0  0  0  0
170192  1  0  0  0  0
172193  1  0  0  0  0
172194  1  0  0  0  0
172195  1  0  0  0  0
173196  1  0  0  0  0
173197  1  0  0  0  0
173198  1  0  0  0  0
181199  1  0  0  0  0
181200  1  0  0  0  0
181201  1  0  0  0  0
155202  1  0  0  0  0
155203  1  0  0  0  0
155204  1  0  0  0  0
M  END
$$$$
