7B6W
  PyMOL3.1          3D                             0

118126  0  0  0  0  0  0  0  0999 V2000
    5.0640   26.4670  -13.7110 C   0  0  0  0  0  0  0  0  0  0  0  0
    4.6930   26.8480  -13.9140 C   0  0  0  0  0  0  0  0  0  0  0  0
    3.8550   26.0480  -13.2220 N   0  0  0  0  0  0  0  0  0  0  0  0
    3.6180   26.2190  -13.3510 N   0  0  0  0  0  0  0  0  0  0  0  0
    6.1070   25.9530  -13.3100 O   0  0  0  0  0  0  0  0  0  0  0  0
    4.5320   27.7800  -14.7000 O   0  0  0  0  0  0  0  0  0  0  0  0
    3.8180   24.9150  -12.2760 C   0  0  0  0  0  0  0  0  0  0  0  0
    3.8060   25.0790  -12.4340 C   0  0  0  0  0  0  0  0  0  0  0  0
    1.5620   25.7030  -11.8430 N   0  0  0  0  0  0  0  0  0  0  0  0
    1.5050   25.6110  -11.8600 N   0  0  0  0  0  0  0  0  0  0  0  0
   -2.5080   30.0200   -6.9600 O   0  0  0  0  0  0  0  0  0  0  0  0
   -2.4710   30.0170   -6.9750 O   0  0  0  0  0  0  0  0  0  0  0  0
    2.7530   25.1130  -11.2240 C   0  0  0  0  0  0  0  0  0  0  0  0
    2.7690   25.0840  -11.3340 C   0  0  0  0  0  0  0  0  0  0  0  0
   -0.4330   26.9220  -11.7810 N   0  0  0  0  0  0  0  0  0  0  0  0
   -0.4710   26.8500  -11.7810 N   0  0  0  0  0  0  0  0  0  0  0  0
   -0.3700   29.1410   -5.8400 O   0  0  0  0  0  0  0  0  0  0  0  0
   -0.3350   29.1260   -5.8630 O   0  0  0  0  0  0  0  0  0  0  0  0
    0.6450   26.4960  -11.1350 C   0  0  0  0  0  0  0  0  0  0  0  0
    0.6060   26.4140  -11.1400 C   0  0  0  0  0  0  0  0  0  0  0  0
   -2.3970   28.1000  -11.8480 N   0  0  0  0  0  0  0  0  0  0  0  0
   -2.4210   28.0500  -11.8430 N   0  0  0  0  0  0  0  0  0  0  0  0
    4.0610   28.1020  -15.2470 O   0  0  0  0  0  0  0  0  0  0  0  0
    6.3870   26.1160  -12.3030 O   0  0  0  0  0  0  0  0  0  0  0  0
   -1.3200   27.7000  -11.1580 C   0  0  0  0  0  0  0  0  0  0  0  0
   -1.3430   27.6440  -11.1580 C   0  0  0  0  0  0  0  0  0  0  0  0
    0.9310   26.8200   -9.8440 N   0  0  0  0  0  0  0  0  0  0  0  0
    0.9110   26.7500   -9.8560 N   0  0  0  0  0  0  0  0  0  0  0  0
   -1.1230   28.1020   -9.7890 C   0  0  0  0  0  0  0  0  0  0  0  0
   -1.1290   28.0560   -9.7950 C   0  0  0  0  0  0  0  0  0  0  0  0
   -2.0060   28.9260   -9.0540 C   0  0  0  0  0  0  0  0  0  0  0  0
   -1.9970   28.8970   -9.0620 C   0  0  0  0  0  0  0  0  0  0  0  0
   -1.7230   29.2480   -7.7580 C   0  0  0  0  0  0  0  0  0  0  0  0
   -1.7000   29.2290   -7.7710 C   0  0  0  0  0  0  0  0  0  0  0  0
   -3.4240   30.8880   -7.6200 C   0  0  0  0  0  0  0  0  0  0  0  0
   -3.3860   30.8850   -7.6350 C   0  0  0  0  0  0  0  0  0  0  0  0
   -0.5340   28.7530   -7.1320 C   0  0  0  0  0  0  0  0  0  0  0  0
   -0.5120   28.7260   -7.1500 C   0  0  0  0  0  0  0  0  0  0  0  0
    0.8460   28.7680   -5.2000 C   0  0  0  0  0  0  0  0  0  0  0  0
    0.8770   28.7400   -5.2240 C   0  0  0  0  0  0  0  0  0  0  0  0
    0.3270   27.9630   -7.8250 C   0  0  0  0  0  0  0  0  0  0  0  0
    0.3340   27.9200   -7.8420 C   0  0  0  0  0  0  0  0  0  0  0  0
    0.0510   27.6190   -9.1640 C   0  0  0  0  0  0  0  0  0  0  0  0
    0.0450   27.5660   -9.1750 C   0  0  0  0  0  0  0  0  0  0  0  0
    1.4270   25.5120  -13.2960 C   0  0  0  0  0  0  0  0  0  0  0  0
    1.2790   25.3810  -13.2950 C   0  0  0  0  0  0  0  0  0  0  0  0
    2.6020   26.2320  -13.9980 C   0  0  0  0  0  0  0  0  0  0  0  0
    2.3160   26.2240  -14.0710 C   0  0  0  0  0  0  0  0  0  0  0  0
    2.7760   25.8220  -15.4540 C   0  0  0  0  0  0  0  0  0  0  0  0
    2.4720   25.8030  -15.5260 C   0  0  0  0  0  0  0  0  0  0  0  0
    2.7180   24.3110  -15.6300 C   0  0  0  0  0  0  0  0  0  0  0  0
    2.6010   24.2930  -15.6650 C   0  0  0  0  0  0  0  0  0  0  0  0
    1.4200   23.7350  -15.0970 C   0  0  0  0  0  0  0  0  0  0  0  0
    1.3890   23.5930  -15.0810 C   0  0  0  0  0  0  0  0  0  0  0  0
    1.2820   24.0270  -13.6110 C   0  0  0  0  0  0  0  0  0  0  0  0
    1.2790   23.8860  -13.5930 C   0  0  0  0  0  0  0  0  0  0  0  0
    5.1800   27.5270  -14.7050 C   0  0  0  0  0  0  0  0  0  0  0  0
    6.0580   26.4130  -13.6020 C   0  0  0  0  0  0  0  0  0  0  0  0
    6.2880   28.0980  -15.2330 C   0  0  0  0  0  0  0  0  0  0  0  0
    7.1420   26.2340  -14.3940 C   0  0  0  0  0  0  0  0  0  0  0  0
    5.8540   29.0800  -16.1530 C   0  0  0  0  0  0  0  0  0  0  0  0
    8.2000   25.7970  -13.5600 C   0  0  0  0  0  0  0  0  0  0  0  0
    4.4870   29.0480  -16.1320 C   0  0  0  0  0  0  0  0  0  0  0  0
    7.6950   25.7420  -12.2860 C   0  0  0  0  0  0  0  0  0  0  0  0
    3.6330   24.0900  -12.7700 H   0  0  0  0  0  0  0  0  0  0  0  0
    3.7370   24.2440  -12.9400 H   0  0  0  0  0  0  0  0  0  0  0  0
    4.6930   24.8220  -11.8430 H   0  0  0  0  0  0  0  0  0  0  0  0
    4.7030   25.1220  -12.0390 H   0  0  0  0  0  0  0  0  0  0  0  0
    3.0850   25.7090  -10.5200 H   0  0  0  0  0  0  0  0  0  0  0  0
    3.0730   25.6460  -10.5900 H   0  0  0  0  0  0  0  0  0  0  0  0
    2.5180   24.2510  -10.8180 H   0  0  0  0  0  0  0  0  0  0  0  0
    2.6300   24.1720  -11.0000 H   0  0  0  0  0  0  0  0  0  0  0  0
   -2.9980   28.6150  -11.4630 H   0  0  0  0  0  0  0  0  0  0  0  0
   -3.0140   28.5740  -11.4570 H   0  0  0  0  0  0  0  0  0  0  0  0
   -2.4980   27.8490  -12.6860 H   0  0  0  0  0  0  0  0  0  0  0  0
   -2.5310   27.7950  -12.6780 H   0  0  0  0  0  0  0  0  0  0  0  0
   -2.7900   29.2500   -9.4530 H   0  0  0  0  0  0  0  0  0  0  0  0
   -2.7810   29.2250   -9.4580 H   0  0  0  0  0  0  0  0  0  0  0  0
   -4.0450   30.3610   -8.1490 H   0  0  0  0  0  0  0  0  0  0  0  0
   -4.0160   30.3580   -8.1530 H   0  0  0  0  0  0  0  0  0  0  0  0
   -2.9350   31.4930   -8.2010 H   0  0  0  0  0  0  0  0  0  0  0  0
   -2.8980   31.4800   -8.2260 H   0  0  0  0  0  0  0  0  0  0  0  0
   -3.9170   31.4010   -6.9590 H   0  0  0  0  0  0  0  0  0  0  0  0
   -3.8680   31.4090   -6.9740 H   0  0  0  0  0  0  0  0  0  0  0  0
    1.5970   29.0960   -5.7200 H   0  0  0  0  0  0  0  0  0  0  0  0
    1.6320   29.0550   -5.7470 H   0  0  0  0  0  0  0  0  0  0  0  0
    0.8940   27.8000   -5.1370 H   0  0  0  0  0  0  0  0  0  0  0  0
    0.9120   27.7710   -5.1570 H   0  0  0  0  0  0  0  0  0  0  0  0
    0.8750   29.1540   -4.3090 H   0  0  0  0  0  0  0  0  0  0  0  0
    0.9130   29.1280   -4.3350 H   0  0  0  0  0  0  0  0  0  0  0  0
    1.1050   27.6460   -7.4130 H   0  0  0  0  0  0  0  0  0  0  0  0
    1.1120   27.5990   -7.4330 H   0  0  0  0  0  0  0  0  0  0  0  0
    0.5840   25.9330  -13.5890 H   0  0  0  0  0  0  0  0  0  0  0  0
    0.3760   25.7060  -13.5250 H   0  0  0  0  0  0  0  0  0  0  0  0
    2.4030   27.1890  -13.9880 H   0  0  0  0  0  0  0  0  0  0  0  0
    1.9980   27.1470  -14.0700 H   0  0  0  0  0  0  0  0  0  0  0  0
    3.6350   26.1550  -15.7800 H   0  0  0  0  0  0  0  0  0  0  0  0
    3.2620   26.2350  -15.9040 H   0  0  0  0  0  0  0  0  0  0  0  0
    2.0750   26.2390  -15.9900 H   0  0  0  0  0  0  0  0  0  0  0  0
    1.6960   26.1090  -16.0310 H   0  0  0  0  0  0  0  0  0  0  0  0
    3.4770   23.9010  -15.1560 H   0  0  0  0  0  0  0  0  0  0  0  0
    3.4130   23.9910  -15.1990 H   0  0  0  0  0  0  0  0  0  0  0  0
    2.8040   24.0940  -16.5860 H   0  0  0  0  0  0  0  0  0  0  0  0
    2.6890   24.0610  -16.6170 H   0  0  0  0  0  0  0  0  0  0  0  0
    1.4050   22.7620  -15.2410 H   0  0  0  0  0  0  0  0  0  0  0  0
    1.4660   22.6230  -15.2200 H   0  0  0  0  0  0  0  0  0  0  0  0
    0.6590   24.1300  -15.5790 H   0  0  0  0  0  0  0  0  0  0  0  0
    0.5740   23.9050  -15.5360 H   0  0  0  0  0  0  0  0  0  0  0  0
    0.4100   23.7180  -13.2990 H   0  0  0  0  0  0  0  0  0  0  0  0
    0.4570   23.4900  -13.2440 H   0  0  0  0  0  0  0  0  0  0  0  0
    1.9640   23.5290  -13.1190 H   0  0  0  0  0  0  0  0  0  0  0  0
    2.0280   23.4690  -13.1250 H   0  0  0  0  0  0  0  0  0  0  0  0
    7.1750   27.8810  -15.0250 H   0  0  0  0  0  0  0  0  0  0  0  0
    7.1800   26.3670  -15.3200 H   0  0  0  0  0  0  0  0  0  0  0  0
    6.3930   29.6390  -16.6760 H   0  0  0  0  0  0  0  0  0  0  0  0
    9.0750   25.5890  -13.8250 H   0  0  0  0  0  0  0  0  0  0  0  0
    3.9220   29.5950  -16.6460 H   0  0  0  0  0  0  0  0  0  0  0  0
    8.1650   25.4830  -11.5130 H   0  0  0  0  0  0  0  0  0  0  0  0
  1  3  1  0  0  0  0
  2  4  1  0  0  0  0
  1  5  2  0  0  0  0
  2  6  2  0  0  0  0
  3  7  1  0  0  0  0
  4  8  1  0  0  0  0
  7 13  1  0  0  0  0
  9 13  1  0  0  0  0
  8 14  1  0  0  0  0
 10 14  1  0  0  0  0
  9 19  1  0  0  0  0
 15 19  1  0  0  0  0
 10 20  1  0  0  0  0
 16 20  1  0  0  0  0
 15 25  2  0  0  0  0
 21 25  1  0  0  0  0
 16 26  2  0  0  0  0
 22 26  1  0  0  0  0
 19 27  2  0  0  0  0
 20 28  2  0  0  0  0
 25 29  1  0  0  0  0
 26 30  1  0  0  0  0
 29 31  1  0  0  0  0
 30 32  1  0  0  0  0
 11 33  1  0  0  0  0
 31 33  2  0  0  0  0
 12 34  1  0  0  0  0
 32 34  2  0  0  0  0
 11 35  1  0  0  0  0
 12 36  1  0  0  0  0
 17 37  1  0  0  0  0
 33 37  1  0  0  0  0
 18 38  1  0  0  0  0
 34 38  1  0  0  0  0
 17 39  1  0  0  0  0
 18 40  1  0  0  0  0
 37 41  2  0  0  0  0
 38 42  2  0  0  0  0
 27 43  1  0  0  0  0
 29 43  2  0  0  0  0
 41 43  1  0  0  0  0
 28 44  1  0  0  0  0
 30 44  2  0  0  0  0
 42 44  1  0  0  0  0
  9 45  1  0  0  0  0
 10 46  1  0  0  0  0
  3 47  1  0  0  0  0
 45 47  1  0  0  0  0
  4 48  1  0  0  0  0
 46 48  1  0  0  0  0
 47 49  1  0  0  0  0
 48 50  1  0  0  0  0
 49 51  1  0  0  0  0
 50 52  1  0  0  0  0
 51 53  1  0  0  0  0
 52 54  1  0  0  0  0
 45 55  1  0  0  0  0
 53 55  1  0  0  0  0
 46 56  1  0  0  0  0
 54 56  1  0  0  0  0
  1 57  1  0  0  0  0
 23 57  1  0  0  0  0
  2 58  1  0  0  0  0
 24 58  1  0  0  0  0
 57 59  2  0  0  0  0
 58 60  2  0  0  0  0
 59 61  1  0  0  0  0
 60 62  1  0  0  0  0
 23 63  1  0  0  0  0
 61 63  2  0  0  0  0
 24 64  1  0  0  0  0
 62 64  2  0  0  0  0
  7 65  1  0  0  0  0
  8 66  1  0  0  0  0
  7 67  1  0  0  0  0
  8 68  1  0  0  0  0
 13 69  1  0  0  0  0
 14 70  1  0  0  0  0
 13 71  1  0  0  0  0
 14 72  1  0  0  0  0
 21 73  1  0  0  0  0
 22 74  1  0  0  0  0
 21 75  1  0  0  0  0
 22 76  1  0  0  0  0
 31 77  1  0  0  0  0
 32 78  1  0  0  0  0
 35 79  1  0  0  0  0
 36 80  1  0  0  0  0
 35 81  1  0  0  0  0
 36 82  1  0  0  0  0
 35 83  1  0  0  0  0
 36 84  1  0  0  0  0
 39 85  1  0  0  0  0
 40 86  1  0  0  0  0
 39 87  1  0  0  0  0
 40 88  1  0  0  0  0
 39 89  1  0  0  0  0
 40 90  1  0  0  0  0
 41 91  1  0  0  0  0
 42 92  1  0  0  0  0
 45 93  1  0  0  0  0
 46 94  1  0  0  0  0
 47 95  1  0  0  0  0
 48 96  1  0  0  0  0
 49 97  1  0  0  0  0
 50 98  1  0  0  0  0
 49 99  1  0  0  0  0
 50100  1  0  0  0  0
 51101  1  0  0  0  0
 52102  1  0  0  0  0
 51103  1  0  0  0  0
 52104  1  0  0  0  0
 53105  1  0  0  0  0
 54106  1  0  0  0  0
 53107  1  0  0  0  0
 54108  1  0  0  0  0
 55109  1  0  0  0  0
 56110  1  0  0  0  0
 55111  1  0  0  0  0
 56112  1  0  0  0  0
 59113  1  0  0  0  0
 60114  1  0  0  0  0
 61115  1  0  0  0  0
 62116  1  0  0  0  0
 63117  1  0  0  0  0
 64118  1  0  0  0  0
M  END
$$$$
