7EPF
  PyMOL3.1          3D                             0

 29 32  0  0  0  0  0  0  0  0999 V2000
   16.7160  -48.9910   41.1330 N   0  0  0  0  0  0  0  0  0  0  0  0
   17.7800  -51.2760   42.8900 C   0  0  0  0  0  0  0  0  0  0  0  0
   17.3720  -45.7270   40.0130 O   0  0  0  0  0  0  0  0  0  0  0  0
   16.3890  -51.1660   42.1940 C   0  0  0  0  0  0  0  0  0  0  0  0
   17.6810  -47.6960   38.9030 N   0  0  0  0  0  0  0  0  0  0  0  0
   16.0250  -49.6740   42.0950 C   0  0  0  0  0  0  0  0  0  0  0  0
   15.2820  -51.9430   42.8850 N   0  0  0  0  0  0  0  0  0  0  0  0
   16.4230  -47.6820   40.9790 C   0  0  0  0  0  0  0  0  0  0  0  0
   15.8550  -55.1900   39.6420 N   0  0  0  0  0  0  0  0  0  0  0  0
   17.1960  -46.9440   39.9420 C   0  0  0  0  0  0  0  0  0  0  0  0
   15.1270  -54.4270   40.5260 N   0  0  0  0  0  0  0  0  0  0  0  0
   15.4650  -46.9820   41.7240 C   0  0  0  0  0  0  0  0  0  0  0  0
   14.7690  -47.6700   42.7130 C   0  0  0  0  0  0  0  0  0  0  0  0
   13.8410  -46.8640   43.5080 C   0  0  0  0  0  0  0  0  0  0  0  0
   14.3670  -45.8690   44.3650 C   0  0  0  0  0  0  0  0  0  0  0  0
   13.5010  -45.0940   45.1440 C   0  0  0  0  0  0  0  0  0  0  0  0
   12.1110  -45.3150   45.0390 C   0  0  0  0  0  0  0  0  0  0  0  0
   11.5500  -46.2790   44.1990 C   0  0  0  0  0  0  0  0  0  0  0  0
   12.4280  -47.0600   43.4470 C   0  0  0  0  0  0  0  0  0  0  0  0
   15.0230  -49.0630   42.9410 C   0  0  0  0  0  0  0  0  0  0  0  0
   14.2960  -49.8550   44.0310 C   0  0  0  0  0  0  0  0  0  0  0  0
   14.8240  -51.3160   44.1800 C   0  0  0  0  0  0  0  0  0  0  0  0
   15.3630  -53.4540   42.9640 C   0  0  0  0  0  0  0  0  0  0  0  0
   15.8820  -54.1600   41.7190 C   0  0  0  0  0  0  0  0  0  0  0  0
   17.1290  -54.7780   41.5210 C   0  0  0  0  0  0  0  0  0  0  0  0
   17.0690  -55.4060   40.2410 C   0  0  0  0  0  0  0  0  0  0  0  0
   13.7660  -53.9670   40.1870 C   0  0  0  0  0  0  0  0  0  0  0  0
   11.3000  -44.6010   45.7690 F   0  0  0  0  0  0  0  0  0  0  0  0
   11.9050  -48.0410   42.7240 F   0  0  0  0  0  0  0  0  0  0  0  0
  2  4  1  0  0  0  0
  1  6  1  0  0  0  0
  4  6  1  0  0  0  0
  4  7  1  0  0  0  0
  1  8  2  0  0  0  0
  3 10  2  0  0  0  0
  5 10  1  0  0  0  0
  8 10  1  0  0  0  0
  9 11  1  0  0  0  0
  8 12  1  0  0  0  0
 12 13  2  0  0  0  0
 13 14  1  0  0  0  0
 14 15  1  0  0  0  0
 15 16  2  0  0  0  0
 16 17  1  0  0  0  0
 17 18  2  0  0  0  0
 14 19  2  0  0  0  0
 18 19  1  0  0  0  0
  6 20  2  0  0  0  0
 13 20  1  0  0  0  0
 20 21  1  0  0  0  0
  7 22  1  0  0  0  0
 21 22  1  0  0  0  0
  7 23  1  0  0  0  0
 11 24  1  0  0  0  0
 23 24  1  0  0  0  0
 24 25  2  0  0  0  0
  9 26  2  0  0  0  0
 25 26  1  0  0  0  0
 11 27  1  0  0  0  0
 17 28  1  0  0  0  0
 19 29  1  0  0  0  0
M  END
$$$$
