8TA2
  PyMOL3.1          3D                             0

 78 82  0  0  0  0  0  0  0  0999 V2000
  114.5300  117.1120  142.7960 Cl  0  0  0  0  0  0  0  0  0  0  0  0
  112.5520  115.3810  137.9950 Cl  0  0  0  0  0  0  0  0  0  0  0  0
  110.5400  116.1300  142.5250 O   0  0  0  0  0  0  0  0  0  0  0  0
  110.2780  114.9370  142.5330 C   0  0  0  0  0  0  0  0  0  0  0  0
  109.2180  114.5110  142.9530 O   0  0  0  0  0  0  0  0  0  0  0  0
  111.2380  113.9650  141.9580 C   0  0  0  0  0  0  0  0  0  0  0  0
  111.0260  112.6200  142.0880 C   0  0  0  0  0  0  0  0  0  0  0  0
  111.9610  111.7480  141.6180 C   0  0  0  0  0  0  0  0  0  0  0  0
  113.0800  112.2430  140.9930 C   0  0  0  0  0  0  0  0  0  0  0  0
  113.2590  113.5150  140.8210 N   0  0  0  0  0  0  0  0  0  0  0  0
  112.3720  114.3520  141.2720 C   0  0  0  0  0  0  0  0  0  0  0  0
  112.6470  115.6630  141.0070 N   0  0  0  0  0  0  0  0  0  0  0  0
  113.6880  116.2810  140.3280 C   0  0  0  0  0  0  0  0  0  0  0  0
  114.6530  116.9940  141.0530 C   0  0  0  0  0  0  0  0  0  0  0  0
  115.7520  117.5610  140.3970 C   0  0  0  0  0  0  0  0  0  0  0  0
  115.8990  117.4050  139.0100 C   0  0  0  0  0  0  0  0  0  0  0  0
  114.9320  116.7070  138.2650 C   0  0  0  0  0  0  0  0  0  0  0  0
  115.0900  116.4440  136.9150 O   0  0  0  0  0  0  0  0  0  0  0  0
  115.8740  117.2180  135.9760 C   0  0  0  0  0  0  0  0  0  0  0  0
  114.9870  118.2700  135.3280 C   0  0  0  0  0  0  0  0  0  0  0  0
  113.7940  117.8900  134.6950 C   0  0  0  0  0  0  0  0  0  0  0  0
  112.9460  118.8610  134.1530 C   0  0  0  0  0  0  0  0  0  0  0  0
  113.2940  120.2140  134.2200 C   0  0  0  0  0  0  0  0  0  0  0  0
  114.4920  120.5990  134.8250 C   0  0  0  0  0  0  0  0  0  0  0  0
  115.3420  119.6280  135.3660 C   0  0  0  0  0  0  0  0  0  0  0  0
  113.8170  116.1640  138.9290 C   0  0  0  0  0  0  0  0  0  0  0  0
  110.1500  112.2370  142.6060 H   0  0  0  0  0  0  0  0  0  0  0  0
  111.8480  110.6760  141.7370 H   0  0  0  0  0  0  0  0  0  0  0  0
  113.8450  111.5750  140.6210 H   0  0  0  0  0  0  0  0  0  0  0  0
  112.0770  116.2590  141.5940 H   0  0  0  0  0  0  0  0  0  0  0  0
  116.5030  118.0980  140.9660 H   0  0  0  0  0  0  0  0  0  0  0  0
  116.2390  116.5540  135.1840 H   0  0  0  0  0  0  0  0  0  0  0  0
  116.7520  117.6730  136.4460 H   0  0  0  0  0  0  0  0  0  0  0  0
  113.5140  116.8430  134.6500 H   0  0  0  0  0  0  0  0  0  0  0  0
  112.0140  118.5680  133.6820 H   0  0  0  0  0  0  0  0  0  0  0  0
  112.6310  120.9630  133.8000 H   0  0  0  0  0  0  0  0  0  0  0  0
  114.7600  121.6500  134.8810 H   0  0  0  0  0  0  0  0  0  0  0  0
  116.2680  119.9370  135.8390 H   0  0  0  0  0  0  0  0  0  0  0  0
  116.7800  117.8190  138.5310 H   0  0  0  0  0  0  0  0  0  0  0  0
  112.8590  122.0780   93.5680 Cl  0  0  0  0  0  0  0  0  0  0  0  0
  110.7690  123.7690   98.3540 Cl  0  0  0  0  0  0  0  0  0  0  0  0
  106.9700  122.6160   93.6770 O   0  0  0  0  0  0  0  0  0  0  0  0
  108.1210  122.6680   94.0720 C   0  0  0  0  0  0  0  0  0  0  0  0
  108.8490  121.6910   94.0770 O   0  0  0  0  0  0  0  0  0  0  0  0
  108.6160  123.9600   94.6030 C   0  0  0  0  0  0  0  0  0  0  0  0
  107.8260  125.0770   94.5340 C   0  0  0  0  0  0  0  0  0  0  0  0
  108.3010  126.2620   95.0000 C   0  0  0  0  0  0  0  0  0  0  0  0
  109.5720  126.3100   95.5220 C   0  0  0  0  0  0  0  0  0  0  0  0
  110.3220  125.2540   95.6040 N   0  0  0  0  0  0  0  0  0  0  0  0
  109.8610  124.1120   95.1950 C   0  0  0  0  0  0  0  0  0  0  0  0
  110.7140  123.0620   95.3770 N   0  0  0  0  0  0  0  0  0  0  0  0
  111.9350  122.8910   96.0240 C   0  0  0  0  0  0  0  0  0  0  0  0
  113.0150  122.3920   95.2800 C   0  0  0  0  0  0  0  0  0  0  0  0
  114.2620  122.2020   95.8750 C   0  0  0  0  0  0  0  0  0  0  0  0
  114.4480  122.5380   97.2120 C   0  0  0  0  0  0  0  0  0  0  0  0
  113.4000  123.0320   97.9920 C   0  0  0  0  0  0  0  0  0  0  0  0
  113.7620  123.5370   99.2340 O   0  0  0  0  0  0  0  0  0  0  0  0
  113.1320  123.3680  100.5310 C   0  0  0  0  0  0  0  0  0  0  0  0
  113.3530  121.9790  101.1260 C   0  0  0  0  0  0  0  0  0  0  0  0
  112.4900  121.5290  102.1390 C   0  0  0  0  0  0  0  0  0  0  0  0
  112.6750  120.2640  102.7140 C   0  0  0  0  0  0  0  0  0  0  0  0
  113.7110  119.4300  102.2780 C   0  0  0  0  0  0  0  0  0  0  0  0
  114.5860  119.8800  101.2870 C   0  0  0  0  0  0  0  0  0  0  0  0
  114.4210  121.1560  100.7280 C   0  0  0  0  0  0  0  0  0  0  0  0
  112.1210  123.1920   97.4020 C   0  0  0  0  0  0  0  0  0  0  0  0
  106.8330  125.0360   94.0940 H   0  0  0  0  0  0  0  0  0  0  0  0
  107.7110  127.1700   94.9450 H   0  0  0  0  0  0  0  0  0  0  0  0
  109.9820  127.2450   95.8780 H   0  0  0  0  0  0  0  0  0  0  0  0
  110.4010  122.2750   94.8240 H   0  0  0  0  0  0  0  0  0  0  0  0
  115.0950  121.8320   95.2840 H   0  0  0  0  0  0  0  0  0  0  0  0
  113.5800  124.0900  101.2250 H   0  0  0  0  0  0  0  0  0  0  0  0
  112.0590  123.5930  100.5060 H   0  0  0  0  0  0  0  0  0  0  0  0
  111.6760  122.1590  102.4820 H   0  0  0  0  0  0  0  0  0  0  0  0
  112.0070  119.9260  103.5000 H   0  0  0  0  0  0  0  0  0  0  0  0
  113.8440  118.4480  102.7210 H   0  0  0  0  0  0  0  0  0  0  0  0
  115.3970  119.2400  100.9530 H   0  0  0  0  0  0  0  0  0  0  0  0
  115.1210  121.4990   99.9720 H   0  0  0  0  0  0  0  0  0  0  0  0
  115.4360  122.4430   97.6520 H   0  0  0  0  0  0  0  0  0  0  0  0
  3  4  2  0  0  0  0
  4  5  1  0  0  0  0
  4  6  1  0  0  0  0
  6  7  1  0  0  0  0
  7  8  2  0  0  0  0
  8  9  1  0  0  0  0
  9 10  2  0  0  0  0
  6 11  2  0  0  0  0
 10 11  1  0  0  0  0
 11 12  1  0  0  0  0
 12 13  1  0  0  0  0
  1 14  1  0  0  0  0
 13 14  1  0  0  0  0
 14 15  2  0  0  0  0
 15 16  1  0  0  0  0
 16 17  2  0  0  0  0
 17 18  1  0  0  0  0
 18 19  1  0  0  0  0
 19 20  1  0  0  0  0
 20 21  2  0  0  0  0
 21 22  1  0  0  0  0
 22 23  2  0  0  0  0
 23 24  1  0  0  0  0
 20 25  1  0  0  0  0
 24 25  2  0  0  0  0
  2 26  1  0  0  0  0
 13 26  2  0  0  0  0
 17 26  1  0  0  0  0
  7 27  1  0  0  0  0
  8 28  1  0  0  0  0
  9 29  1  0  0  0  0
 12 30  1  0  0  0  0
 15 31  1  0  0  0  0
 19 32  1  0  0  0  0
 19 33  1  0  0  0  0
 21 34  1  0  0  0  0
 22 35  1  0  0  0  0
 23 36  1  0  0  0  0
 24 37  1  0  0  0  0
 25 38  1  0  0  0  0
 16 39  1  0  0  0  0
 42 43  2  0  0  0  0
 43 44  1  0  0  0  0
 43 45  1  0  0  0  0
 45 46  1  0  0  0  0
 46 47  2  0  0  0  0
 47 48  1  0  0  0  0
 48 49  2  0  0  0  0
 45 50  2  0  0  0  0
 49 50  1  0  0  0  0
 50 51  1  0  0  0  0
 51 52  1  0  0  0  0
 40 53  1  0  0  0  0
 52 53  1  0  0  0  0
 53 54  2  0  0  0  0
 54 55  1  0  0  0  0
 55 56  2  0  0  0  0
 56 57  1  0  0  0  0
 57 58  1  0  0  0  0
 58 59  1  0  0  0  0
 59 60  2  0  0  0  0
 60 61  1  0  0  0  0
 61 62  2  0  0  0  0
 62 63  1  0  0  0  0
 59 64  1  0  0  0  0
 63 64  2  0  0  0  0
 41 65  1  0  0  0  0
 52 65  2  0  0  0  0
 56 65  1  0  0  0  0
 46 66  1  0  0  0  0
 47 67  1  0  0  0  0
 48 68  1  0  0  0  0
 51 69  1  0  0  0  0
 54 70  1  0  0  0  0
 58 71  1  0  0  0  0
 58 72  1  0  0  0  0
 60 73  1  0  0  0  0
 61 74  1  0  0  0  0
 62 75  1  0  0  0  0
 63 76  1  0  0  0  0
 64 77  1  0  0  0  0
 55 78  1  0  0  0  0
M  END
$$$$
