6LI0
  PyMOL3.1          3D                             0

 34 37  0  0  0  0  0  0  0  0999 V2000
   32.0970   71.0600   64.6300 C   0  0  0  0  0  0  0  0  0  0  0  0
   33.1340   72.0490   64.5240 N   0  0  0  0  0  0  0  0  0  0  0  0
   35.2870   70.8880   62.1190 O   0  0  0  0  0  0  0  0  0  0  0  0
   32.9230   70.2160   67.1720 S   0  0  0  0  0  0  0  0  0  0  0  0
   31.1500   70.9560   63.6130 C   0  0  0  0  0  0  0  0  0  0  0  0
   33.3480   72.9500   65.5850 N   0  0  0  0  0  0  0  0  0  0  0  0
   36.0840   75.2710   63.3220 O   0  0  0  0  0  0  0  0  0  0  0  0
   30.1230   70.0240   63.6900 C   0  0  0  0  0  0  0  0  0  0  0  0
   36.2090   73.4560   61.9900 N   0  0  0  0  0  0  0  0  0  0  0  0
   38.9770   72.6360   62.0300 O   0  0  0  0  0  0  0  0  0  0  0  0
   29.9840   69.1970   64.7930 C   0  0  0  0  0  0  0  0  0  0  0  0
   30.8850   69.3270   65.8580 C   0  0  0  0  0  0  0  0  0  0  0  0
   31.9070   70.2640   65.7820 C   0  0  0  0  0  0  0  0  0  0  0  0
   30.9400   68.5900   67.0700 C   0  0  0  0  0  0  0  0  0  0  0  0
   31.9750   68.9270   67.8520 C   0  0  0  0  0  0  0  0  0  0  0  0
   32.3320   68.3030   69.1620 C   0  0  0  0  0  0  0  0  0  0  0  0
   32.7730   69.2210   70.2840 C   0  0  0  0  0  0  0  0  0  0  0  0
   31.8890   70.1070   70.8900 C   0  0  0  0  0  0  0  0  0  0  0  0
   32.2860   70.8690   71.9810 C   0  0  0  0  0  0  0  0  0  0  0  0
   33.5710   70.7510   72.4950 C   0  0  0  0  0  0  0  0  0  0  0  0
   34.4430   69.8240   71.9370 C   0  0  0  0  0  0  0  0  0  0  0  0
   34.0400   69.0920   70.8280 C   0  0  0  0  0  0  0  0  0  0  0  0
   35.8660   69.6810   72.4440 C   0  0  0  0  0  0  0  0  0  0  0  0
   33.9570   72.3350   63.4870 C   0  0  0  0  0  0  0  0  0  0  0  0
   34.7070   73.4320   63.8630 C   0  0  0  0  0  0  0  0  0  0  0  0
   34.3090   73.7540   65.1950 C   0  0  0  0  0  0  0  0  0  0  0  0
   34.7600   74.8440   66.1120 C   0  0  0  0  0  0  0  0  0  0  0  0
   34.0200   71.5300   62.2370 C   0  0  0  0  0  0  0  0  0  0  0  0
   35.7300   74.1110   63.0520 C   0  0  0  0  0  0  0  0  0  0  0  0
   37.2240   74.0070   61.0920 C   0  0  0  0  0  0  0  0  0  0  0  0
   38.5980   73.9750   61.7120 C   0  0  0  0  0  0  0  0  0  0  0  0
   36.7460   69.9910   71.5380 F   0  0  0  0  0  0  0  0  0  0  0  0
   36.1930   68.4640   72.7870 F   0  0  0  0  0  0  0  0  0  0  0  0
   36.1630   70.4630   73.4740 F   0  0  0  0  0  0  0  0  0  0  0  0
  1  2  1  0  0  0  0
  1  5  1  0  0  0  0
  2  6  1  0  0  0  0
  5  8  2  0  0  0  0
  8 11  1  0  0  0  0
 11 12  2  0  0  0  0
  1 13  2  0  0  0  0
  4 13  1  0  0  0  0
 12 13  1  0  0  0  0
 12 14  1  0  0  0  0
  4 15  1  0  0  0  0
 14 15  2  0  0  0  0
 15 16  1  0  0  0  0
 16 17  1  0  0  0  0
 17 18  1  0  0  0  0
 18 19  2  0  0  0  0
 19 20  1  0  0  0  0
 20 21  2  0  0  0  0
 17 22  2  0  0  0  0
 21 22  1  0  0  0  0
 21 23  1  0  0  0  0
  2 24  1  0  0  0  0
 24 25  2  0  0  0  0
  6 26  2  0  0  0  0
 25 26  1  0  0  0  0
 26 27  1  0  0  0  0
  3 28  1  0  0  0  0
 24 28  1  0  0  0  0
  7 29  2  0  0  0  0
  9 29  1  0  0  0  0
 25 29  1  0  0  0  0
  9 30  1  0  0  0  0
 10 31  1  0  0  0  0
 30 31  1  0  0  0  0
 23 32  1  0  0  0  0
 23 33  1  0  0  0  0
 23 34  1  0  0  0  0
M  END
$$$$
