8VW4
  PyMOL3.1          3D                             0

 90 98  0  0  0  0  0  0  0  0999 V2000
   -6.4260   -9.1260   -0.8340 C   0  0  0  0  0  0  0  0  0  0  0  0
   -6.6480   -9.3030   -2.3160 C   0  0  0  0  0  0  0  0  0  0  0  0
   -7.8560   -9.0190   -2.9480 C   0  0  0  0  0  0  0  0  0  0  0  0
   -7.9920   -9.2080   -4.3050 C   0  0  0  0  0  0  0  0  0  0  0  0
   -6.9140   -9.6640   -5.0380 C   0  0  0  0  0  0  0  0  0  0  0  0
   -5.7150   -9.9520   -4.4240 C   0  0  0  0  0  0  0  0  0  0  0  0
   -5.5840   -9.7670   -3.0570 C   0  0  0  0  0  0  0  0  0  0  0  0
   -4.4130  -10.0390   -2.4310 O   0  0  0  0  0  0  0  0  0  0  0  0
   -3.2490  -10.1070   -3.2580 C   0  0  0  0  0  0  0  0  0  0  0  0
   -7.0400   -9.8680   -6.4890 N   0  0  0  0  0  0  0  0  0  0  0  0
   -6.0300  -10.0700   -7.1380 O   0  0  0  0  0  0  0  0  0  0  0  0
   -8.1400   -9.8600   -7.0140 O   0  0  0  0  0  0  0  0  0  0  0  0
   -9.0220   -8.4940   -2.1620 C   0  0  0  0  0  0  0  0  0  0  0  0
  -10.1350   -9.4390   -2.1820 N   0  0  0  0  0  0  0  0  0  0  0  0
  -11.2470   -8.8570   -2.7050 C   0  0  0  0  0  0  0  0  0  0  0  0
  -12.4000   -9.5560   -2.8250 C   0  0  0  0  0  0  0  0  0  0  0  0
  -12.4560  -10.8940   -2.3970 C   0  0  0  0  0  0  0  0  0  0  0  0
  -11.3360  -11.4710   -1.8580 C   0  0  0  0  0  0  0  0  0  0  0  0
  -10.1550  -10.7110   -1.7540 C   0  0  0  0  0  0  0  0  0  0  0  0
   -9.1260  -11.1790   -1.2840 O   0  0  0  0  0  0  0  0  0  0  0  0
  -10.9250   -7.4280   -3.0790 C   0  0  0  0  0  0  0  0  0  0  0  0
   -9.5310   -7.2090   -2.6690 N   0  0  0  0  0  0  0  0  0  0  0  0
   -8.8440   -6.0550   -2.7010 C   0  0  0  0  0  0  0  0  0  0  0  0
   -7.6810   -6.0300   -2.3240 O   0  0  0  0  0  0  0  0  0  0  0  0
   -9.5100   -4.7970   -3.2020 C   0  0  0  0  0  0  0  0  0  0  0  0
   -8.5300   -3.7580   -3.2310 O   0  0  0  0  0  0  0  0  0  0  0  0
   -7.9490   -3.6000   -4.4340 C   0  0  0  0  0  0  0  0  0  0  0  0
   -7.0000   -2.5980   -4.6240 C   0  0  0  0  0  0  0  0  0  0  0  0
   -6.4410   -2.4470   -5.8500 C   0  0  0  0  0  0  0  0  0  0  0  0
   -6.8300   -3.3250   -6.8840 C   0  0  0  0  0  0  0  0  0  0  0  0
   -6.2770   -3.2120   -8.1650 C   0  0  0  0  0  0  0  0  0  0  0  0
   -6.6700   -4.0640   -9.1450 C   0  0  0  0  0  0  0  0  0  0  0  0
   -7.6050   -5.0610   -8.8900 C   0  0  0  0  0  0  0  0  0  0  0  0
   -8.1890   -5.1950   -7.6500 C   0  0  0  0  0  0  0  0  0  0  0  0
   -7.7920   -4.3280   -6.6200 C   0  0  0  0  0  0  0  0  0  0  0  0
   -8.3100   -4.4190   -5.3940 N   0  0  0  0  0  0  0  0  0  0  0  0
   -9.1820   -6.3030   -7.3810 C   0  0  0  0  0  0  0  0  0  0  0  0
  -10.5650   -6.0230   -7.8820 C   0  0  0  0  0  0  0  0  0  0  0  0
  -11.3240   -6.9360   -8.1150 O   0  0  0  0  0  0  0  0  0  0  0  0
  -10.9460   -4.7580   -8.0400 O   0  0  0  0  0  0  0  0  0  0  0  0
   -7.9590   -5.8790   -9.9070 O   0  0  0  0  0  0  0  0  0  0  0  0
   -8.0820   -5.2490  -11.1830 C   0  0  0  0  0  0  0  0  0  0  0  0
  -11.1060   -7.2830   -4.5920 C   0  0  0  0  0  0  0  0  0  0  0  0
   -8.6600   -8.3460   -1.1450 H   0  0  0  0  0  0  0  0  0  0  0  0
  -11.5570   -6.7080   -2.5600 H   0  0  0  0  0  0  0  0  0  0  0  0
  -33.7760    1.8510   -7.4800 C   0  0  0  0  0  0  0  0  0  0  0  0
  -33.6850    1.6440   -5.9880 C   0  0  0  0  0  0  0  0  0  0  0  0
  -32.6060    1.0310   -5.3520 C   0  0  0  0  0  0  0  0  0  0  0  0
  -32.6020    0.8770   -3.9880 C   0  0  0  0  0  0  0  0  0  0  0  0
  -33.6750    1.3350   -3.2540 C   0  0  0  0  0  0  0  0  0  0  0  0
  -34.7460    1.9450   -3.8650 C   0  0  0  0  0  0  0  0  0  0  0  0
  -34.7530    2.0950   -5.2400 C   0  0  0  0  0  0  0  0  0  0  0  0
  -35.7950    2.6960   -5.8690 O   0  0  0  0  0  0  0  0  0  0  0  0
  -36.6410    3.5260   -5.0690 C   0  0  0  0  0  0  0  0  0  0  0  0
  -33.6510    1.1820   -1.7920 N   0  0  0  0  0  0  0  0  0  0  0  0
  -34.4800    1.7420   -1.1000 O   0  0  0  0  0  0  0  0  0  0  0  0
  -32.7790    0.5110   -1.2830 O   0  0  0  0  0  0  0  0  0  0  0  0
  -31.4330    0.5340   -6.1390 C   0  0  0  0  0  0  0  0  0  0  0  0
  -31.2860   -0.9260   -6.0700 N   0  0  0  0  0  0  0  0  0  0  0  0
  -30.0560   -1.2630   -5.5850 C   0  0  0  0  0  0  0  0  0  0  0  0
  -29.6960   -2.5650   -5.4290 C   0  0  0  0  0  0  0  0  0  0  0  0
  -30.5900   -3.5810   -5.7850 C   0  0  0  0  0  0  0  0  0  0  0  0
  -31.8170   -3.2400   -6.2890 C   0  0  0  0  0  0  0  0  0  0  0  0
  -32.1660   -1.8860   -6.4320 C   0  0  0  0  0  0  0  0  0  0  0  0
  -33.2620   -1.5590   -6.8770 O   0  0  0  0  0  0  0  0  0  0  0  0
  -29.2860    0.0010   -5.2770 C   0  0  0  0  0  0  0  0  0  0  0  0
  -30.1560    1.1100   -5.6860 N   0  0  0  0  0  0  0  0  0  0  0  0
  -29.8290    2.4100   -5.6880 C   0  0  0  0  0  0  0  0  0  0  0  0
  -30.6470    3.2300   -6.0550 O   0  0  0  0  0  0  0  0  0  0  0  0
  -28.4580    2.8240   -5.2260 C   0  0  0  0  0  0  0  0  0  0  0  0
  -28.3980    4.2480   -5.2140 O   0  0  0  0  0  0  0  0  0  0  0  0
  -28.6720    4.8250   -4.0240 C   0  0  0  0  0  0  0  0  0  0  0  0
  -28.5880    6.2200   -3.9050 C   0  0  0  0  0  0  0  0  0  0  0  0
  -28.8590    6.8240   -2.7130 C   0  0  0  0  0  0  0  0  0  0  0  0
  -29.2080    5.9860   -1.6240 C   0  0  0  0  0  0  0  0  0  0  0  0
  -29.4920    6.5310   -0.3610 C   0  0  0  0  0  0  0  0  0  0  0  0
  -29.8130    5.7090    0.6710 C   0  0  0  0  0  0  0  0  0  0  0  0
  -29.8830    4.3250    0.5000 C   0  0  0  0  0  0  0  0  0  0  0  0
  -29.6260    3.7470   -0.7250 C   0  0  0  0  0  0  0  0  0  0  0  0
  -29.2770    4.5740   -1.8090 C   0  0  0  0  0  0  0  0  0  0  0  0
  -29.0080    4.0550   -3.0110 N   0  0  0  0  0  0  0  0  0  0  0  0
  -29.7050    2.2500   -0.9030 C   0  0  0  0  0  0  0  0  0  0  0  0
  -28.4510    1.5640   -0.4340 C   0  0  0  0  0  0  0  0  0  0  0  0
  -28.4870    0.3890   -0.1370 O   0  0  0  0  0  0  0  0  0  0  0  0
  -27.3050    2.2600   -0.3620 O   0  0  0  0  0  0  0  0  0  0  0  0
  -30.2170    3.5600    1.5690 O   0  0  0  0  0  0  0  0  0  0  0  0
  -29.6920    3.9780    2.8350 C   0  0  0  0  0  0  0  0  0  0  0  0
  -28.9780    0.0210   -3.7760 C   0  0  0  0  0  0  0  0  0  0  0  0
  -31.6280    0.8400   -7.1670 H   0  0  0  0  0  0  0  0  0  0  0  0
  -28.3530    0.0710   -5.8360 H   0  0  0  0  0  0  0  0  0  0  0  0
  1  2  1  0  0  0  0
  2  3  2  0  0  0  0
  3  4  1  0  0  0  0
  4  5  2  0  0  0  0
  5  6  1  0  0  0  0
  2  7  1  0  0  0  0
  6  7  2  0  0  0  0
  7  8  1  0  0  0  0
  8  9  1  0  0  0  0
  5 10  1  0  0  0  0
 10 11  2  0  0  0  0
 10 12  1  0  0  0  0
  3 13  1  0  0  0  0
 13 14  1  0  0  0  0
 14 15  1  0  0  0  0
 15 16  2  0  0  0  0
 16 17  1  0  0  0  0
 17 18  2  0  0  0  0
 14 19  1  0  0  0  0
 18 19  1  0  0  0  0
 19 20  2  0  0  0  0
 15 21  1  0  0  0  0
 13 22  1  0  0  0  0
 21 22  1  0  0  0  0
 22 23  1  0  0  0  0
 23 24  2  0  0  0  0
 23 25  1  0  0  0  0
 25 26  1  0  0  0  0
 26 27  1  0  0  0  0
 27 28  2  0  0  0  0
 28 29  1  0  0  0  0
 29 30  2  0  0  0  0
 30 31  1  0  0  0  0
 31 32  2  0  0  0  0
 32 33  1  0  0  0  0
 33 34  2  0  0  0  0
 30 35  1  0  0  0  0
 34 35  1  0  0  0  0
 27 36  1  0  0  0  0
 35 36  2  0  0  0  0
 34 37  1  0  0  0  0
 37 38  1  0  0  0  0
 38 39  1  0  0  0  0
 38 40  2  0  0  0  0
 33 41  1  0  0  0  0
 41 42  1  0  0  0  0
 21 43  1  0  0  0  0
 13 44  1  0  0  0  0
 21 45  1  0  0  0  0
 46 47  1  0  0  0  0
 47 48  2  0  0  0  0
 48 49  1  0  0  0  0
 49 50  2  0  0  0  0
 50 51  1  0  0  0  0
 47 52  1  0  0  0  0
 51 52  2  0  0  0  0
 52 53  1  0  0  0  0
 53 54  1  0  0  0  0
 50 55  1  0  0  0  0
 55 56  2  0  0  0  0
 55 57  1  0  0  0  0
 48 58  1  0  0  0  0
 58 59  1  0  0  0  0
 59 60  1  0  0  0  0
 60 61  2  0  0  0  0
 61 62  1  0  0  0  0
 62 63  2  0  0  0  0
 59 64  1  0  0  0  0
 63 64  1  0  0  0  0
 64 65  2  0  0  0  0
 60 66  1  0  0  0  0
 58 67  1  0  0  0  0
 66 67  1  0  0  0  0
 67 68  1  0  0  0  0
 68 69  2  0  0  0  0
 68 70  1  0  0  0  0
 70 71  1  0  0  0  0
 71 72  1  0  0  0  0
 72 73  2  0  0  0  0
 73 74  1  0  0  0  0
 74 75  2  0  0  0  0
 75 76  1  0  0  0  0
 76 77  2  0  0  0  0
 77 78  1  0  0  0  0
 78 79  2  0  0  0  0
 75 80  1  0  0  0  0
 79 80  1  0  0  0  0
 72 81  1  0  0  0  0
 80 81  2  0  0  0  0
 79 82  1  0  0  0  0
 82 83  1  0  0  0  0
 83 84  1  0  0  0  0
 83 85  2  0  0  0  0
 78 86  1  0  0  0  0
 86 87  1  0  0  0  0
 66 88  1  0  0  0  0
 58 89  1  0  0  0  0
 66 90  1  0  0  0  0
M  END
$$$$
