7TRP
  PyMOL3.1          3D                             0

 14 14  0  0  0  0  0  0  0  0999 V2000
  112.7410   98.9250   84.5130 C   0  0  0  0  0  0  0  0  0  0  0  0
  112.8300   97.6810   85.2500 N   0  0  0  0  0  0  0  0  0  0  0  0
  111.9510   97.7760   86.3960 C   0  0  0  0  0  0  0  0  0  0  0  0
  112.3940   96.5830   84.4190 C   0  0  0  0  0  0  0  0  0  0  0  0
  114.1820   97.4020   85.6960 C   0  0  0  0  0  0  0  0  0  0  0  0
  114.9000   98.6620   86.1780 C   0  0  0  0  0  0  0  0  0  0  0  0
  115.4970   99.6120   86.5650 C   0  0  0  0  0  0  0  0  0  0  0  0
  116.2660  100.8370   87.0640 C   0  0  0  0  0  0  0  0  0  0  0  0
  116.5990  100.6600   88.4120 O   0  0  0  0  0  0  0  0  0  0  0  0
  117.6120   99.7240   88.6450 C   0  0  0  0  0  0  0  0  0  0  0  0
  118.4460   99.2520   87.5240 N   0  0  0  0  0  0  0  0  0  0  0  0
  118.6230   97.9170   87.5510 O   0  0  0  0  0  0  0  0  0  0  0  0
  118.1040   97.4780   88.9370 C   0  0  0  0  0  0  0  0  0  0  0  0
  117.3780   98.7500   89.5210 C   0  0  0  0  0  0  0  0  0  0  0  0
  1  2  1  0  0  0  0
  2  3  1  0  0  0  0
  2  4  1  0  0  0  0
  2  5  1  0  0  0  0
  5  6  1  0  0  0  0
  6  7  1  0  0  0  0
  7  8  1  0  0  0  0
  8  9  1  0  0  0  0
  9 10  1  0  0  0  0
 10 11  1  0  0  0  0
 10 14  1  0  0  0  0
 11 12  1  0  0  0  0
 12 13  1  0  0  0  0
 13 14  1  0  0  0  0
M  END
$$$$
