7LW1
  PyMOL3.1          3D                             0

 53 56  0  0  0  0  0  0  0  0999 V2000
  185.9290  171.0630  147.6190 O   0  0  0  0  0  0  0  0  0  0  0  0
  187.0880  170.3160  147.3240 C   0  0  0  0  0  0  0  0  0  0  0  0
  187.2430  170.0230  145.8370 C   0  0  0  0  0  0  0  0  0  0  0  0
  186.0690  170.4100  144.9100 C   0  0  0  0  0  0  0  0  0  0  0  0
  186.3980  171.0690  143.6300 C   0  0  0  0  0  0  0  0  0  0  0  0
  186.6640  171.6020  142.5940 C   0  0  0  0  0  0  0  0  0  0  0  0
  186.4770  172.2540  139.0620 C   0  0  0  0  0  0  0  0  0  0  0  0
  186.2350  171.7030  140.3160 C   0  0  0  0  0  0  0  0  0  0  0  0
  186.9710  172.2170  141.3620 C   0  0  0  0  0  0  0  0  0  0  0  0
  187.9060  173.2360  141.2010 C   0  0  0  0  0  0  0  0  0  0  0  0
  188.1550  173.7790  139.9360 C   0  0  0  0  0  0  0  0  0  0  0  0
  187.4090  173.2680  138.8590 C   0  0  0  0  0  0  0  0  0  0  0  0
  190.7330  173.0170  146.6100 C   0  0  0  0  0  0  0  0  0  0  0  0
  191.7680  173.8240  146.3310 C   0  0  0  0  0  0  0  0  0  0  0  0
  193.0860  173.7670  146.7720 C   0  0  0  0  0  0  0  0  0  0  0  0
  193.2410  172.6790  147.5920 C   0  0  0  0  0  0  0  0  0  0  0  0
  192.2110  171.7790  147.9320 C   0  0  0  0  0  0  0  0  0  0  0  0
  190.9620  171.9160  147.4440 C   0  0  0  0  0  0  0  0  0  0  0  0
  194.4530  172.3790  148.2090 N   0  0  0  0  0  0  0  0  0  0  0  0
  195.3870  173.2880  148.6330 C   0  0  0  0  0  0  0  0  0  0  0  0
  195.1400  174.4550  148.3920 O   0  0  0  0  0  0  0  0  0  0  0  0
  196.5880  172.7790  149.3290 C   0  0  0  0  0  0  0  0  0  0  0  0
  189.5170  173.4300  145.8910 C   0  0  0  0  0  0  0  0  0  0  0  0
  189.3040  173.7120  144.4990 N   0  0  0  0  0  0  0  0  0  0  0  0
  189.9790  174.6210  143.8460 C   0  0  0  0  0  0  0  0  0  0  0  0
  190.9750  175.4280  144.4810 C   0  0  0  0  0  0  0  0  0  0  0  0
  191.7450  174.9370  145.5300 O   0  0  0  0  0  0  0  0  0  0  0  0
  188.4090  172.9880  143.7030 N   0  0  0  0  0  0  0  0  0  0  0  0
  188.5680  173.5760  142.5060 C   0  0  0  0  0  0  0  0  0  0  0  0
  189.5580  174.5690  142.5500 C   0  0  0  0  0  0  0  0  0  0  0  0
  186.1620  171.9880  147.4850 H   0  0  0  0  0  0  0  0  0  0  0  0
  187.1250  169.2800  147.7070 H   0  0  0  0  0  0  0  0  0  0  0  0
  187.9460  170.9400  147.5840 H   0  0  0  0  0  0  0  0  0  0  0  0
  187.0970  168.9770  145.6840 H   0  0  0  0  0  0  0  0  0  0  0  0
  188.2940  170.2350  145.5810 H   0  0  0  0  0  0  0  0  0  0  0  0
  185.3940  171.1430  145.3410 H   0  0  0  0  0  0  0  0  0  0  0  0
  185.4690  169.5070  144.6730 H   0  0  0  0  0  0  0  0  0  0  0  0
  185.9620  171.9430  138.1490 H   0  0  0  0  0  0  0  0  0  0  0  0
  185.5790  170.9340  140.7000 H   0  0  0  0  0  0  0  0  0  0  0  0
  188.9310  174.5720  139.9780 H   0  0  0  0  0  0  0  0  0  0  0  0
  187.5880  173.7020  137.8430 H   0  0  0  0  0  0  0  0  0  0  0  0
  193.5770  174.6300  146.3120 H   0  0  0  0  0  0  0  0  0  0  0  0
  192.5440  171.0030  148.5920 H   0  0  0  0  0  0  0  0  0  0  0  0
  190.2290  171.1750  147.7520 H   0  0  0  0  0  0  0  0  0  0  0  0
  194.3550  171.3870  148.2810 H   0  0  0  0  0  0  0  0  0  0  0  0
  196.0520  171.9970  149.8410 H   0  0  0  0  0  0  0  0  0  0  0  0
  197.0690  173.5360  149.9700 H   0  0  0  0  0  0  0  0  0  0  0  0
  197.2050  172.3970  148.5390 H   0  0  0  0  0  0  0  0  0  0  0  0
  189.2400  174.2510  146.5160 H   0  0  0  0  0  0  0  0  0  0  0  0
  188.8150  172.6010  145.8890 H   0  0  0  0  0  0  0  0  0  0  0  0
  190.2240  176.1100  144.8840 H   0  0  0  0  0  0  0  0  0  0  0  0
  191.6330  175.7010  143.6350 H   0  0  0  0  0  0  0  0  0  0  0  0
  189.6330  174.9670  141.5850 H   0  0  0  0  0  0  0  0  0  0  0  0
  1  2  1  0  0  0  0
  2  3  1  0  0  0  0
  3  4  1  0  0  0  0
  4  5  1  0  0  0  0
  5  6  3  0  0  0  0
  7  8  2  0  0  0  0
  6  9  1  0  0  0  0
  8  9  1  0  0  0  0
  9 10  2  0  0  0  0
 10 11  1  0  0  0  0
  7 12  1  0  0  0  0
 11 12  2  0  0  0  0
 13 14  1  0  0  0  0
 14 15  2  0  0  0  0
 15 16  1  0  0  0  0
 16 17  2  0  0  0  0
 13 18  2  0  0  0  0
 17 18  1  0  0  0  0
 16 19  1  0  0  0  0
 19 20  1  0  0  0  0
 20 21  2  0  0  0  0
 20 22  1  0  0  0  0
 13 23  1  0  0  0  0
 23 24  1  0  0  0  0
 24 25  1  0  0  0  0
 25 26  1  0  0  0  0
 14 27  1  0  0  0  0
 26 27  1  0  0  0  0
 24 28  1  0  0  0  0
 10 29  1  0  0  0  0
 28 29  2  0  0  0  0
 25 30  2  0  0  0  0
 29 30  1  0  0  0  0
  1 31  1  0  0  0  0
  2 32  1  0  0  0  0
  2 33  1  0  0  0  0
  3 34  1  0  0  0  0
  3 35  1  0  0  0  0
  4 36  1  0  0  0  0
  4 37  1  0  0  0  0
  7 38  1  0  0  0  0
  8 39  1  0  0  0  0
 11 40  1  0  0  0  0
 12 41  1  0  0  0  0
 15 42  1  0  0  0  0
 17 43  1  0  0  0  0
 18 44  1  0  0  0  0
 19 45  1  0  0  0  0
 22 46  1  0  0  0  0
 22 47  1  0  0  0  0
 22 48  1  0  0  0  0
 23 49  1  0  0  0  0
 23 50  1  0  0  0  0
 26 51  1  0  0  0  0
 26 52  1  0  0  0  0
 30 53  1  0  0  0  0
M  END
$$$$
