7LW1
  PyMOL3.1          3D                             0

 53 56  0  0  0  0  0  0  0  0999 V2000
  129.0830  171.0480  167.3800 O   0  0  0  0  0  0  0  0  0  0  0  0
  127.9240  170.3010  167.6750 C   0  0  0  0  0  0  0  0  0  0  0  0
  127.7690  170.0080  169.1610 C   0  0  0  0  0  0  0  0  0  0  0  0
  128.9430  170.3940  170.0890 C   0  0  0  0  0  0  0  0  0  0  0  0
  128.6130  171.0530  171.3690 C   0  0  0  0  0  0  0  0  0  0  0  0
  128.3470  171.5860  172.4050 C   0  0  0  0  0  0  0  0  0  0  0  0
  128.5340  172.2370  175.9370 C   0  0  0  0  0  0  0  0  0  0  0  0
  128.7760  171.6870  174.6830 C   0  0  0  0  0  0  0  0  0  0  0  0
  128.0400  172.2010  173.6370 C   0  0  0  0  0  0  0  0  0  0  0  0
  127.1050  173.2200  173.7980 C   0  0  0  0  0  0  0  0  0  0  0  0
  126.8570  173.7630  175.0630 C   0  0  0  0  0  0  0  0  0  0  0  0
  127.6020  173.2520  176.1400 C   0  0  0  0  0  0  0  0  0  0  0  0
  124.2780  173.0020  168.3890 C   0  0  0  0  0  0  0  0  0  0  0  0
  123.2440  173.8090  168.6680 C   0  0  0  0  0  0  0  0  0  0  0  0
  121.9260  173.7530  168.2270 C   0  0  0  0  0  0  0  0  0  0  0  0
  121.7700  172.6650  167.4070 C   0  0  0  0  0  0  0  0  0  0  0  0
  122.8000  171.7650  167.0670 C   0  0  0  0  0  0  0  0  0  0  0  0
  124.0490  171.9010  167.5550 C   0  0  0  0  0  0  0  0  0  0  0  0
  120.5580  172.3640  166.7900 N   0  0  0  0  0  0  0  0  0  0  0  0
  119.6250  173.2740  166.3660 C   0  0  0  0  0  0  0  0  0  0  0  0
  119.8720  174.4400  166.6070 O   0  0  0  0  0  0  0  0  0  0  0  0
  118.4230  172.7650  165.6700 C   0  0  0  0  0  0  0  0  0  0  0  0
  125.4950  173.4140  169.1080 C   0  0  0  0  0  0  0  0  0  0  0  0
  125.7080  173.6970  170.5000 N   0  0  0  0  0  0  0  0  0  0  0  0
  125.0330  174.6050  171.1530 C   0  0  0  0  0  0  0  0  0  0  0  0
  124.0370  175.4130  170.5180 C   0  0  0  0  0  0  0  0  0  0  0  0
  123.2670  174.9220  169.4690 O   0  0  0  0  0  0  0  0  0  0  0  0
  126.6020  172.9730  171.2960 N   0  0  0  0  0  0  0  0  0  0  0  0
  126.4440  173.5610  172.4930 C   0  0  0  0  0  0  0  0  0  0  0  0
  125.4540  174.5540  172.4490 C   0  0  0  0  0  0  0  0  0  0  0  0
  128.8490  171.9730  167.5140 H   0  0  0  0  0  0  0  0  0  0  0  0
  127.8860  169.2650  167.2910 H   0  0  0  0  0  0  0  0  0  0  0  0
  127.0660  170.9250  167.4150 H   0  0  0  0  0  0  0  0  0  0  0  0
  127.9140  168.9620  169.3140 H   0  0  0  0  0  0  0  0  0  0  0  0
  126.7180  170.2200  169.4170 H   0  0  0  0  0  0  0  0  0  0  0  0
  129.6170  171.1270  169.6580 H   0  0  0  0  0  0  0  0  0  0  0  0
  129.5420  169.4910  170.3250 H   0  0  0  0  0  0  0  0  0  0  0  0
  129.0490  171.9260  176.8500 H   0  0  0  0  0  0  0  0  0  0  0  0
  129.4320  170.9170  174.2990 H   0  0  0  0  0  0  0  0  0  0  0  0
  126.0800  174.5560  175.0210 H   0  0  0  0  0  0  0  0  0  0  0  0
  127.4220  173.6860  177.1560 H   0  0  0  0  0  0  0  0  0  0  0  0
  121.4350  174.6160  168.6870 H   0  0  0  0  0  0  0  0  0  0  0  0
  122.4680  170.9890  166.4060 H   0  0  0  0  0  0  0  0  0  0  0  0
  124.7830  171.1600  167.2470 H   0  0  0  0  0  0  0  0  0  0  0  0
  120.6570  171.3720  166.7170 H   0  0  0  0  0  0  0  0  0  0  0  0
  118.9590  171.9830  165.1570 H   0  0  0  0  0  0  0  0  0  0  0  0
  117.9430  173.5220  165.0280 H   0  0  0  0  0  0  0  0  0  0  0  0
  117.8060  172.3830  166.4590 H   0  0  0  0  0  0  0  0  0  0  0  0
  125.7720  174.2350  168.4830 H   0  0  0  0  0  0  0  0  0  0  0  0
  126.1960  172.5860  169.1100 H   0  0  0  0  0  0  0  0  0  0  0  0
  124.7870  176.0940  170.1150 H   0  0  0  0  0  0  0  0  0  0  0  0
  123.3780  175.6860  171.3640 H   0  0  0  0  0  0  0  0  0  0  0  0
  125.3780  174.9520  173.4140 H   0  0  0  0  0  0  0  0  0  0  0  0
  1  2  1  0  0  0  0
  2  3  1  0  0  0  0
  3  4  1  0  0  0  0
  4  5  1  0  0  0  0
  5  6  3  0  0  0  0
  7  8  2  0  0  0  0
  6  9  1  0  0  0  0
  8  9  1  0  0  0  0
  9 10  2  0  0  0  0
 10 11  1  0  0  0  0
  7 12  1  0  0  0  0
 11 12  2  0  0  0  0
 13 14  1  0  0  0  0
 14 15  2  0  0  0  0
 15 16  1  0  0  0  0
 16 17  2  0  0  0  0
 13 18  2  0  0  0  0
 17 18  1  0  0  0  0
 16 19  1  0  0  0  0
 19 20  1  0  0  0  0
 20 21  2  0  0  0  0
 20 22  1  0  0  0  0
 13 23  1  0  0  0  0
 23 24  1  0  0  0  0
 24 25  1  0  0  0  0
 25 26  1  0  0  0  0
 14 27  1  0  0  0  0
 26 27  1  0  0  0  0
 24 28  1  0  0  0  0
 10 29  1  0  0  0  0
 28 29  2  0  0  0  0
 25 30  2  0  0  0  0
 29 30  1  0  0  0  0
  1 31  1  0  0  0  0
  2 32  1  0  0  0  0
  2 33  1  0  0  0  0
  3 34  1  0  0  0  0
  3 35  1  0  0  0  0
  4 36  1  0  0  0  0
  4 37  1  0  0  0  0
  7 38  1  0  0  0  0
  8 39  1  0  0  0  0
 11 40  1  0  0  0  0
 12 41  1  0  0  0  0
 15 42  1  0  0  0  0
 17 43  1  0  0  0  0
 18 44  1  0  0  0  0
 19 45  1  0  0  0  0
 22 46  1  0  0  0  0
 22 47  1  0  0  0  0
 22 48  1  0  0  0  0
 23 49  1  0  0  0  0
 23 50  1  0  0  0  0
 26 51  1  0  0  0  0
 26 52  1  0  0  0  0
 30 53  1  0  0  0  0
M  END
$$$$
