8XJN
  PyMOL3.1          3D                             0

 29 30  0  0  0  0  0  0  0  0999 V2000
   96.6420  125.8400  116.6820 Cl  0  0  0  0  0  0  0  0  0  0  0  0
   85.1560  127.2830  125.7720 O   0  0  0  0  0  0  0  0  0  0  0  0
   86.3160  127.0930  126.2320 C   0  0  0  0  0  0  0  0  0  0  0  0
   86.4700  126.7490  127.4370 O   0  0  0  0  0  0  0  0  0  0  0  0
   87.5450  127.2840  125.3220 C   0  0  0  0  0  0  0  0  0  0  0  0
   87.7370  126.1050  124.3410 C   0  0  0  0  0  0  0  0  0  0  0  0
   88.5640  126.5090  123.0970 C   0  0  0  0  0  0  0  0  0  0  0  0
   90.0590  126.1760  123.3400 C   0  0  0  0  0  0  0  0  0  0  0  0
   90.4980  125.0790  122.6890 C   0  0  0  0  0  0  0  0  0  0  0  0
   89.4960  124.3010  121.7930 C   0  0  0  0  0  0  0  0  0  0  0  0
   89.3560  122.8470  122.3310 C   0  0  0  0  0  0  0  0  0  0  0  0
   88.2510  122.7170  123.0250 C   0  0  0  0  0  0  0  0  0  0  0  0
   87.1800  123.4850  122.4110 O   0  0  0  0  0  0  0  0  0  0  0  0
   87.9220  121.1380  122.9250 C   0  0  0  0  0  0  0  0  0  0  0  0
   88.6400  120.6510  121.5970 C   0  0  0  0  0  0  0  0  0  0  0  0
   89.1810  121.7480  121.0540 C   0  0  0  0  0  0  0  0  0  0  0  0
   90.5570  121.4240  120.4440 C   0  0  0  0  0  0  0  0  0  0  0  0
   90.6500  120.6540  119.3500 C   0  0  0  0  0  0  0  0  0  0  0  0
   92.0310  120.3410  118.7540 C   0  0  0  0  0  0  0  0  0  0  0  0
   93.0250  121.4280  119.1920 C   0  0  0  0  0  0  0  0  0  0  0  0
   93.9740  121.6310  118.1560 O   0  0  0  0  0  0  0  0  0  0  0  0
   93.9530  122.9380  117.5960 C   0  0  0  0  0  0  0  0  0  0  0  0
   92.7470  123.5120  117.2080 C   0  0  0  0  0  0  0  0  0  0  0  0
   92.7290  124.7890  116.6600 C   0  0  0  0  0  0  0  0  0  0  0  0
   93.9160  125.4940  116.5010 C   0  0  0  0  0  0  0  0  0  0  0  0
   95.1200  124.9240  116.8890 C   0  0  0  0  0  0  0  0  0  0  0  0
   95.1390  123.6470  117.4380 C   0  0  0  0  0  0  0  0  0  0  0  0
   91.9450  120.3180  117.3630 O   0  0  0  0  0  0  0  0  0  0  0  0
   87.6570  120.0680  120.6890 O   0  0  0  0  0  0  0  0  0  0  0  0
  2  3  2  0  0  0  0
  3  4  1  0  0  0  0
  3  5  1  0  0  0  0
  5  6  1  0  0  0  0
  6  7  1  0  0  0  0
  7  8  1  0  0  0  0
  8  9  2  0  0  0  0
  9 10  1  0  0  0  0
 10 11  1  0  0  0  0
 11 12  1  0  0  0  0
 12 13  1  0  0  0  0
 12 14  1  0  0  0  0
 14 15  1  0  0  0  0
 11 16  1  0  0  0  0
 15 16  1  0  0  0  0
 16 17  1  0  0  0  0
 17 18  2  0  0  0  0
 18 19  1  0  0  0  0
 19 20  1  0  0  0  0
 20 21  1  0  0  0  0
 21 22  1  0  0  0  0
 22 23  2  0  0  0  0
 23 24  1  0  0  0  0
 24 25  2  0  0  0  0
  1 26  1  0  0  0  0
 25 26  1  0  0  0  0
 22 27  1  0  0  0  0
 26 27  2  0  0  0  0
 19 28  1  0  0  0  0
 15 29  1  0  0  0  0
M  END
$$$$
