7M93
  PyMOL3.1          3D                             0

 27 30  0  0  0  0  0  0  0  0999 V2000
   -2.6516  -23.9184   30.3556 N   0  0  0  0  0  0  0  0  0  0  0  0
   -4.6981  -34.6899   32.0286 C   0  0  0  0  0  0  0  0  0  0  0  0
   -4.9149  -33.3112   32.3017 O   0  0  0  0  0  0  0  0  0  0  0  0
   -4.0265  -32.4194   31.7728 C   0  0  0  0  0  0  0  0  0  0  0  0
   -1.0282  -21.5781   29.9707 N   0  0  0  0  0  0  0  0  0  0  0  0
   -4.2808  -31.0787   32.0788 C   0  0  0  0  0  0  0  0  0  0  0  0
   -5.4883  -30.7544   32.9296 C   0  0  0  0  0  0  0  0  0  0  0  0
   -5.4518  -29.3706   33.5161 C   0  0  0  0  0  0  0  0  0  0  0  0
   -5.0485  -28.3663   32.4474 C   0  0  0  0  0  0  0  0  0  0  0  0
   -3.6281  -28.6298   31.9482 C   0  0  0  0  0  0  0  0  0  0  0  0
   -3.3292  -27.6926   30.7670 C   0  0  0  0  0  0  0  0  0  0  0  0
   -3.1619  -26.2260   31.1457 C   0  0  0  0  0  0  0  0  0  0  0  0
   -3.0403  -25.2793   29.9669 C   0  0  0  0  0  0  0  0  0  0  0  0
   -1.2328  -23.8821   30.7277 C   0  0  0  0  0  0  0  0  0  0  0  0
   -0.8134  -22.4779   31.1081 C   0  0  0  0  0  0  0  0  0  0  0  0
   -0.4654  -20.2341   30.1746 C   0  0  0  0  0  0  0  0  0  0  0  0
   -0.9478  -19.1976   29.1708 C   0  0  0  0  0  0  0  0  0  0  0  0
   -0.1517  -17.9083   29.3132 C   0  0  0  0  0  0  0  0  0  0  0  0
   -0.2383  -17.3742   30.7280 C   0  0  0  0  0  0  0  0  0  0  0  0
    0.2387  -18.4092   31.7272 C   0  0  0  0  0  0  0  0  0  0  0  0
   -0.5600  -19.6980   31.5944 C   0  0  0  0  0  0  0  0  0  0  0  0
   -2.4584  -21.5698   29.6517 C   0  0  0  0  0  0  0  0  0  0  0  0
   -2.9026  -22.9682   29.2639 C   0  0  0  0  0  0  0  0  0  0  0  0
   -3.4202  -30.0851   31.5821 C   0  0  0  0  0  0  0  0  0  0  0  0
   -2.3430  -30.4605   30.7849 C   0  0  0  0  0  0  0  0  0  0  0  0
   -2.1085  -31.7933   30.4931 C   0  0  0  0  0  0  0  0  0  0  0  0
   -2.9445  -32.7788   30.9862 C   0  0  0  0  0  0  0  0  0  0  0  0
  2  3  1  0  0  0  0
  3  4  1  0  0  0  0
  4  6  1  0  0  0  0
  6  7  1  0  0  0  0
  7  8  1  0  0  0  0
  8  9  1  0  0  0  0
  9 10  1  0  0  0  0
 10 11  1  0  0  0  0
 11 12  1  0  0  0  0
  1 13  1  0  0  0  0
 12 13  1  0  0  0  0
  1 14  1  0  0  0  0
  5 15  1  0  0  0  0
 14 15  1  0  0  0  0
  5 16  1  0  0  0  0
 16 17  1  0  0  0  0
 17 18  1  0  0  0  0
 18 19  1  0  0  0  0
 19 20  1  0  0  0  0
 16 21  1  0  0  0  0
 20 21  1  0  0  0  0
  5 22  1  0  0  0  0
  1 23  1  0  0  0  0
 22 23  1  0  0  0  0
  6 24  2  0  0  0  0
 10 24  1  0  0  0  0
 24 25  1  0  0  0  0
 25 26  2  0  0  0  0
  4 27  2  0  0  0  0
 26 27  1  0  0  0  0
M  END
$$$$
