7M93
  PyMOL3.1          3D                             0

 27 30  0  0  0  0  0  0  0  0999 V2000
   32.3933    5.6546   15.6573 N   0  0  0  0  0  0  0  0  0  0  0  0
   35.4716   -4.5087   13.8805 C   0  0  0  0  0  0  0  0  0  0  0  0
   35.3850   -3.0896   13.7939 O   0  0  0  0  0  0  0  0  0  0  0  0
   34.3939   -2.4786   14.5068 C   0  0  0  0  0  0  0  0  0  0  0  0
   30.7066    7.9752   15.8878 N   0  0  0  0  0  0  0  0  0  0  0  0
   34.3124   -1.0912   14.3424 C   0  0  0  0  0  0  0  0  0  0  0  0
   35.3769   -0.4039   13.5166 C   0  0  0  0  0  0  0  0  0  0  0  0
   35.0596    1.0318   13.1725 C   0  0  0  0  0  0  0  0  0  0  0  0
   34.4524    1.7416   14.3732 C   0  0  0  0  0  0  0  0  0  0  0  0
   33.1219    1.1077   14.7759 C   0  0  0  0  0  0  0  0  0  0  0  0
   32.5517    1.7975   16.0271 C   0  0  0  0  0  0  0  0  0  0  0  0
   31.9333    3.1779   15.7994 C   0  0  0  0  0  0  0  0  0  0  0  0
   32.8790    4.3355   16.0886 C   0  0  0  0  0  0  0  0  0  0  0  0
   30.9788    5.6236   15.2640 C   0  0  0  0  0  0  0  0  0  0  0  0
   30.5170    6.9988   14.8079 C   0  0  0  0  0  0  0  0  0  0  0  0
   30.1610    9.3071   15.5814 C   0  0  0  0  0  0  0  0  0  0  0  0
   30.4606   10.3498   16.6519 C   0  0  0  0  0  0  0  0  0  0  0  0
   29.7519   11.6628   16.3453 C   0  0  0  0  0  0  0  0  0  0  0  0
   30.1304   12.1709   14.9729 C   0  0  0  0  0  0  0  0  0  0  0  0
   29.8179   11.1336   13.9104 C   0  0  0  0  0  0  0  0  0  0  0  0
   30.5338    9.8215   14.2008 C   0  0  0  0  0  0  0  0  0  0  0  0
   32.1273    8.0167   16.2497 C   0  0  0  0  0  0  0  0  0  0  0  0
   32.5813    6.6497   16.7172 C   0  0  0  0  0  0  0  0  0  0  0  0
   33.2873   -0.3826   14.9918 C   0  0  0  0  0  0  0  0  0  0  0  0
   32.4013   -1.0759   15.8108 C   0  0  0  0  0  0  0  0  0  0  0  0
   32.5124   -2.4457   15.9765 C   0  0  0  0  0  0  0  0  0  0  0  0
   33.5034   -3.1548   15.3230 C   0  0  0  0  0  0  0  0  0  0  0  0
  2  3  1  0  0  0  0
  3  4  1  0  0  0  0
  4  6  1  0  0  0  0
  6  7  1  0  0  0  0
  7  8  1  0  0  0  0
  8  9  1  0  0  0  0
  9 10  1  0  0  0  0
 10 11  1  0  0  0  0
 11 12  1  0  0  0  0
  1 13  1  0  0  0  0
 12 13  1  0  0  0  0
  1 14  1  0  0  0  0
  5 15  1  0  0  0  0
 14 15  1  0  0  0  0
  5 16  1  0  0  0  0
 16 17  1  0  0  0  0
 17 18  1  0  0  0  0
 18 19  1  0  0  0  0
 19 20  1  0  0  0  0
 16 21  1  0  0  0  0
 20 21  1  0  0  0  0
  5 22  1  0  0  0  0
  1 23  1  0  0  0  0
 22 23  1  0  0  0  0
  6 24  2  0  0  0  0
 10 24  1  0  0  0  0
 24 25  1  0  0  0  0
 25 26  2  0  0  0  0
  4 27  2  0  0  0  0
 26 27  1  0  0  0  0
M  END
$$$$
