6QU3
  PyMOL3.1          3D                             0

 76 84  0  0  0  0  0  0  0  0999 V2000
   49.3710   14.7580  146.7500 N   0  0  0  0  0  0  0  0  0  0  0  0
   49.5280   12.5720  147.0820 C   0  0  0  0  0  0  0  0  0  0  0  0
   49.6810   10.2150  147.4300 O   0  0  0  0  0  0  0  0  0  0  0  0
   53.2840   18.2660  142.5690 Cl  0  0  0  0  0  0  0  0  0  0  0  0
   53.3400   18.9060  145.5130 Cl  0  0  0  0  0  0  0  0  0  0  0  0
   48.9810   13.6090  146.2090 C   0  0  0  0  0  0  0  0  0  0  0  0
   48.5070   10.9110  145.6250 N   0  0  0  0  0  0  0  0  0  0  0  0
   50.1170   14.5840  147.8790 C   0  0  0  0  0  0  0  0  0  0  0  0
   50.2370   13.2290  148.1160 C   0  0  0  0  0  0  0  0  0  0  0  0
   49.0090   16.0350  146.1750 C   0  0  0  0  0  0  0  0  0  0  0  0
   50.0650   16.5420  145.2540 C   0  0  0  0  0  0  0  0  0  0  0  0
   51.0490   17.3590  145.7770 C   0  0  0  0  0  0  0  0  0  0  0  0
   52.0200   17.8610  144.9260 C   0  0  0  0  0  0  0  0  0  0  0  0
   51.9970   17.5620  143.5810 C   0  0  0  0  0  0  0  0  0  0  0  0
   51.0050   16.7480  143.0510 C   0  0  0  0  0  0  0  0  0  0  0  0
   50.0290   16.2340  143.8950 C   0  0  0  0  0  0  0  0  0  0  0  0
   48.2260   13.2600  145.0980 C   0  0  0  0  0  0  0  0  0  0  0  0
   48.0090   11.9010  144.8380 C   0  0  0  0  0  0  0  0  0  0  0  0
   49.2410   11.1570  146.7240 C   0  0  0  0  0  0  0  0  0  0  0  0
   28.2790   43.5820  127.0110 N   0  0  0  0  0  0  0  0  0  0  0  0
   28.0730   45.0560  125.3300 C   0  0  0  0  0  0  0  0  0  0  0  0
   27.8380   46.6190  123.5710 O   0  0  0  0  0  0  0  0  0  0  0  0
   25.0450   37.7280  126.7570 Cl  0  0  0  0  0  0  0  0  0  0  0  0
   24.3000   39.7430  128.9000 Cl  0  0  0  0  0  0  0  0  0  0  0  0
   28.8450   43.9130  125.8210 C   0  0  0  0  0  0  0  0  0  0  0  0
   29.5060   45.1180  123.3570 N   0  0  0  0  0  0  0  0  0  0  0  0
   27.2280   44.4000  127.3130 C   0  0  0  0  0  0  0  0  0  0  0  0
   27.0720   45.3240  126.2960 C   0  0  0  0  0  0  0  0  0  0  0  0
   28.7250   42.4720  127.8560 C   0  0  0  0  0  0  0  0  0  0  0  0
   27.8650   41.2660  127.5360 C   0  0  0  0  0  0  0  0  0  0  0  0
   26.6780   41.0960  128.2500 C   0  0  0  0  0  0  0  0  0  0  0  0
   25.8400   40.0100  127.9880 C   0  0  0  0  0  0  0  0  0  0  0  0
   26.1920   39.0930  127.0110 C   0  0  0  0  0  0  0  0  0  0  0  0
   27.3770   39.2490  126.2750 C   0  0  0  0  0  0  0  0  0  0  0  0
   28.2210   40.3410  126.5410 C   0  0  0  0  0  0  0  0  0  0  0  0
   29.9050   43.4480  125.0460 C   0  0  0  0  0  0  0  0  0  0  0  0
   30.2080   44.0660  123.8270 C   0  0  0  0  0  0  0  0  0  0  0  0
   28.4690   45.6440  124.0280 C   0  0  0  0  0  0  0  0  0  0  0  0
   41.1290  -14.1960  102.0980 N   0  0  0  0  0  0  0  0  0  0  0  0
   41.1970  -16.0910  103.2840 C   0  0  0  0  0  0  0  0  0  0  0  0
   41.2580  -18.1130  104.5200 O   0  0  0  0  0  0  0  0  0  0  0  0
   35.6880  -10.3200  102.1740 Cl  0  0  0  0  0  0  0  0  0  0  0  0
   36.1780  -12.5810  100.0150 Cl  0  0  0  0  0  0  0  0  0  0  0  0
   41.4800  -14.6470  103.3180 C   0  0  0  0  0  0  0  0  0  0  0  0
   41.9920  -16.2420  105.5830 N   0  0  0  0  0  0  0  0  0  0  0  0
   40.6600  -15.2080  101.3080 C   0  0  0  0  0  0  0  0  0  0  0  0
   40.6850  -16.3950  102.0020 C   0  0  0  0  0  0  0  0  0  0  0  0
   41.2260  -12.8010  101.6760 C   0  0  0  0  0  0  0  0  0  0  0  0
   39.8490  -12.1830  101.7860 C   0  0  0  0  0  0  0  0  0  0  0  0
   38.8060  -12.6150  100.9590 C   0  0  0  0  0  0  0  0  0  0  0  0
   37.5380  -12.0460  101.0780 C   0  0  0  0  0  0  0  0  0  0  0  0
   37.3200  -11.0490  102.0260 C   0  0  0  0  0  0  0  0  0  0  0  0
   38.3480  -10.6160  102.8560 C   0  0  0  0  0  0  0  0  0  0  0  0
   39.6160  -11.1810  102.7340 C   0  0  0  0  0  0  0  0  0  0  0  0
   42.0030  -14.0840  104.4780 C   0  0  0  0  0  0  0  0  0  0  0  0
   42.2440  -14.9080  105.5880 C   0  0  0  0  0  0  0  0  0  0  0  0
   41.4850  -16.8820  104.5070 C   0  0  0  0  0  0  0  0  0  0  0  0
   49.2040   20.4760   82.7020 N   0  0  0  0  0  0  0  0  0  0  0  0
   48.9710   22.4890   81.7980 C   0  0  0  0  0  0  0  0  0  0  0  0
   48.7690   24.6300   80.7860 O   0  0  0  0  0  0  0  0  0  0  0  0
   53.9690   19.2920   87.1500 Cl  0  0  0  0  0  0  0  0  0  0  0  0
   54.3140   18.4420   84.1900 Cl  0  0  0  0  0  0  0  0  0  0  0  0
   48.5570   21.6290   82.9030 C   0  0  0  0  0  0  0  0  0  0  0  0
   47.5680   24.2290   82.6900 N   0  0  0  0  0  0  0  0  0  0  0  0
   49.9740   20.5160   81.5950 C   0  0  0  0  0  0  0  0  0  0  0  0
   49.8570   21.7480   81.0070 C   0  0  0  0  0  0  0  0  0  0  0  0
   49.1000   19.3240   83.5700 C   0  0  0  0  0  0  0  0  0  0  0  0
   50.3080   19.3220   84.4710 C   0  0  0  0  0  0  0  0  0  0  0  0
   51.5590   18.9510   83.9650 C   0  0  0  0  0  0  0  0  0  0  0  0
   52.6790   18.9510   84.7860 C   0  0  0  0  0  0  0  0  0  0  0  0
   52.5220   19.3200   86.1130 C   0  0  0  0  0  0  0  0  0  0  0  0
   51.2870   19.6980   86.6330 C   0  0  0  0  0  0  0  0  0  0  0  0
   50.1680   19.7060   85.8030 C   0  0  0  0  0  0  0  0  0  0  0  0
   47.6700   22.1150   83.8480 C   0  0  0  0  0  0  0  0  0  0  0  0
   47.1980   23.4200   83.7080 C   0  0  0  0  0  0  0  0  0  0  0  0
   48.4240   23.8580   81.7250 C   0  0  0  0  0  0  0  0  0  0  0  0
  1  6  1  0  0  0  0
  2  6  2  0  0  0  0
  1  8  1  0  0  0  0
  2  9  1  0  0  0  0
  8  9  2  0  0  0  0
  1 10  1  0  0  0  0
 10 11  1  0  0  0  0
 11 12  1  0  0  0  0
  5 13  1  0  0  0  0
 12 13  2  0  0  0  0
  4 14  1  0  0  0  0
 13 14  1  0  0  0  0
 14 15  2  0  0  0  0
 11 16  2  0  0  0  0
 15 16  1  0  0  0  0
  6 17  1  0  0  0  0
  7 18  2  0  0  0  0
 17 18  1  0  0  0  0
  2 19  1  0  0  0  0
  3 19  2  0  0  0  0
  7 19  1  0  0  0  0
 20 25  1  0  0  0  0
 21 25  2  0  0  0  0
 20 27  1  0  0  0  0
 21 28  1  0  0  0  0
 27 28  2  0  0  0  0
 20 29  1  0  0  0  0
 29 30  1  0  0  0  0
 30 31  1  0  0  0  0
 24 32  1  0  0  0  0
 31 32  2  0  0  0  0
 23 33  1  0  0  0  0
 32 33  1  0  0  0  0
 33 34  2  0  0  0  0
 30 35  2  0  0  0  0
 34 35  1  0  0  0  0
 25 36  1  0  0  0  0
 26 37  2  0  0  0  0
 36 37  1  0  0  0  0
 21 38  1  0  0  0  0
 22 38  2  0  0  0  0
 26 38  1  0  0  0  0
 39 44  1  0  0  0  0
 40 44  2  0  0  0  0
 39 46  1  0  0  0  0
 40 47  1  0  0  0  0
 46 47  2  0  0  0  0
 39 48  1  0  0  0  0
 48 49  1  0  0  0  0
 49 50  1  0  0  0  0
 43 51  1  0  0  0  0
 50 51  2  0  0  0  0
 42 52  1  0  0  0  0
 51 52  1  0  0  0  0
 52 53  2  0  0  0  0
 49 54  2  0  0  0  0
 53 54  1  0  0  0  0
 44 55  1  0  0  0  0
 45 56  2  0  0  0  0
 55 56  1  0  0  0  0
 40 57  1  0  0  0  0
 41 57  2  0  0  0  0
 45 57  1  0  0  0  0
 58 63  1  0  0  0  0
 59 63  2  0  0  0  0
 58 65  1  0  0  0  0
 59 66  1  0  0  0  0
 65 66  2  0  0  0  0
 58 67  1  0  0  0  0
 67 68  1  0  0  0  0
 68 69  1  0  0  0  0
 62 70  1  0  0  0  0
 69 70  2  0  0  0  0
 61 71  1  0  0  0  0
 70 71  1  0  0  0  0
 71 72  2  0  0  0  0
 68 73  2  0  0  0  0
 72 73  1  0  0  0  0
 63 74  1  0  0  0  0
 64 75  2  0  0  0  0
 74 75  1  0  0  0  0
 59 76  1  0  0  0  0
 60 76  2  0  0  0  0
 64 76  1  0  0  0  0
M  END
$$$$
