9EXY
  PyMOL3.1          3D                             0

 62 70  0  0  0  0  0  0  0  0999 V2000
  -19.1060   14.7610   -6.2650 N   0  0  0  0  0  0  0  0  0  0  0  0
  -22.6220   13.9120   -6.5670 C   0  0  0  0  0  0  0  0  0  0  0  0
  -20.5030   14.9900   -6.1900 O   0  0  0  0  0  0  0  0  0  0  0  0
  -21.1390   13.8720   -6.5800 C   0  0  0  0  0  0  0  0  0  0  0  0
  -16.1420    9.9360  -10.0520 N   0  0  0  0  0  0  0  0  0  0  0  0
  -21.7710    5.5240   -8.0550 O   0  0  0  0  0  0  0  0  0  0  0  0
  -18.9720   13.5290   -6.6850 C   0  0  0  0  0  0  0  0  0  0  0  0
  -21.4050    7.6680   -8.6540 N   0  0  0  0  0  0  0  0  0  0  0  0
  -20.3210    8.1460   -6.1220 O   0  0  0  0  0  0  0  0  0  0  0  0
  -17.6470   12.9230   -6.9050 C   0  0  0  0  0  0  0  0  0  0  0  0
  -17.3610   12.4630   -8.1990 C   0  0  0  0  0  0  0  0  0  0  0  0
  -16.1400   11.8770   -8.5100 C   0  0  0  0  0  0  0  0  0  0  0  0
  -15.8520   11.3770   -9.9070 C   0  0  0  0  0  0  0  0  0  0  0  0
  -17.5920    9.6690  -10.0370 C   0  0  0  0  0  0  0  0  0  0  0  0
  -17.8760    8.1630  -10.0510 C   0  0  0  0  0  0  0  0  0  0  0  0
  -17.2040    7.4830  -11.2470 C   0  0  0  0  0  0  0  0  0  0  0  0
  -15.7320    7.8770  -11.3500 C   0  0  0  0  0  0  0  0  0  0  0  0
  -15.5690    9.3940  -11.2920 C   0  0  0  0  0  0  0  0  0  0  0  0
  -15.1990   11.7610   -7.5050 C   0  0  0  0  0  0  0  0  0  0  0  0
  -15.4650   12.2100   -6.2270 C   0  0  0  0  0  0  0  0  0  0  0  0
  -16.6840   12.7970   -5.8910 C   0  0  0  0  0  0  0  0  0  0  0  0
  -16.9060   13.2670   -4.4750 C   0  0  0  0  0  0  0  0  0  0  0  0
  -20.2260   12.9180   -6.9100 C   0  0  0  0  0  0  0  0  0  0  0  0
  -20.5280   11.5510   -7.3820 C   0  0  0  0  0  0  0  0  0  0  0  0
  -21.0640   11.3400   -8.6520 C   0  0  0  0  0  0  0  0  0  0  0  0
  -21.3580   10.0620   -9.0960 C   0  0  0  0  0  0  0  0  0  0  0  0
  -21.1080    8.9770   -8.2670 C   0  0  0  0  0  0  0  0  0  0  0  0
  -21.5000    6.6790   -7.7390 C   0  0  0  0  0  0  0  0  0  0  0  0
  -21.2540    7.0530   -6.2860 C   0  0  0  0  0  0  0  0  0  0  0  0
  -20.5780    9.1910   -6.9800 C   0  0  0  0  0  0  0  0  0  0  0  0
  -20.2840   10.4650   -6.5440 C   0  0  0  0  0  0  0  0  0  0  0  0
  -34.2640   24.8460  -36.5410 N   0  0  0  0  0  0  0  0  0  0  0  0
  -35.6670   24.0880  -33.2880 C   0  0  0  0  0  0  0  0  0  0  0  0
  -35.2900   24.5820  -35.6070 O   0  0  0  0  0  0  0  0  0  0  0  0
  -34.7380   24.3810  -34.4060 C   0  0  0  0  0  0  0  0  0  0  0  0
  -27.8180   23.0730  -35.5880 N   0  0  0  0  0  0  0  0  0  0  0  0
  -28.6730   25.0910  -28.5190 O   0  0  0  0  0  0  0  0  0  0  0  0
  -33.1440   24.7940  -35.8580 C   0  0  0  0  0  0  0  0  0  0  0  0
  -29.7650   24.0380  -30.1820 N   0  0  0  0  0  0  0  0  0  0  0  0
  -30.3070   26.4900  -31.3450 O   0  0  0  0  0  0  0  0  0  0  0  0
  -31.8270   25.0060  -36.4880 C   0  0  0  0  0  0  0  0  0  0  0  0
  -30.8910   23.9660  -36.3890 C   0  0  0  0  0  0  0  0  0  0  0  0
  -29.6230   24.0680  -36.9480 C   0  0  0  0  0  0  0  0  0  0  0  0
  -28.6280   22.9360  -36.8150 C   0  0  0  0  0  0  0  0  0  0  0  0
  -28.5900   22.7160  -34.3830 C   0  0  0  0  0  0  0  0  0  0  0  0
  -27.7930   22.9690  -33.1100 C   0  0  0  0  0  0  0  0  0  0  0  0
  -26.4750   22.1980  -33.1290 C   0  0  0  0  0  0  0  0  0  0  0  0
  -25.7060   22.4750  -34.4170 C   0  0  0  0  0  0  0  0  0  0  0  0
  -26.5880   22.2490  -35.6420 C   0  0  0  0  0  0  0  0  0  0  0  0
  -29.2990   25.2380  -37.6130 C   0  0  0  0  0  0  0  0  0  0  0  0
  -30.2090   26.2730  -37.7170 C   0  0  0  0  0  0  0  0  0  0  0  0
  -31.4860   26.1910  -37.1620 C   0  0  0  0  0  0  0  0  0  0  0  0
  -32.4380   27.3500  -37.3080 C   0  0  0  0  0  0  0  0  0  0  0  0
  -33.3850   24.4920  -34.4970 C   0  0  0  0  0  0  0  0  0  0  0  0
  -32.4310   24.3480  -33.3770 C   0  0  0  0  0  0  0  0  0  0  0  0
  -32.1740   23.0970  -32.8090 C   0  0  0  0  0  0  0  0  0  0  0  0
  -31.2910   22.9660  -31.7490 C   0  0  0  0  0  0  0  0  0  0  0  0
  -30.6530   24.1010  -31.2550 C   0  0  0  0  0  0  0  0  0  0  0  0
  -29.4490   25.1360  -29.4670 C   0  0  0  0  0  0  0  0  0  0  0  0
  -30.1100   26.4300  -29.9080 C   0  0  0  0  0  0  0  0  0  0  0  0
  -30.9200   25.3540  -31.8190 C   0  0  0  0  0  0  0  0  0  0  0  0
  -31.8000   25.4800  -32.8750 C   0  0  0  0  0  0  0  0  0  0  0  0
  1  3  1  0  0  0  0
  2  4  1  0  0  0  0
  3  4  1  0  0  0  0
  1  7  2  0  0  0  0
  7 10  1  0  0  0  0
 10 11  2  0  0  0  0
 11 12  1  0  0  0  0
  5 13  1  0  0  0  0
 12 13  1  0  0  0  0
  5 14  1  0  0  0  0
 14 15  1  0  0  0  0
 15 16  1  0  0  0  0
 16 17  1  0  0  0  0
  5 18  1  0  0  0  0
 17 18  1  0  0  0  0
 12 19  2  0  0  0  0
 19 20  1  0  0  0  0
 10 21  1  0  0  0  0
 20 21  2  0  0  0  0
 21 22  1  0  0  0  0
  4 23  2  0  0  0  0
  7 23  1  0  0  0  0
 23 24  1  0  0  0  0
 24 25  2  0  0  0  0
 25 26  1  0  0  0  0
  8 27  1  0  0  0  0
 26 27  2  0  0  0  0
  6 28  2  0  0  0  0
  8 28  1  0  0  0  0
  9 29  1  0  0  0  0
 28 29  1  0  0  0  0
  9 30  1  0  0  0  0
 27 30  1  0  0  0  0
 24 31  1  0  0  0  0
 30 31  2  0  0  0  0
 32 34  1  0  0  0  0
 33 35  1  0  0  0  0
 34 35  1  0  0  0  0
 32 38  2  0  0  0  0
 38 41  1  0  0  0  0
 41 42  2  0  0  0  0
 42 43  1  0  0  0  0
 36 44  1  0  0  0  0
 43 44  1  0  0  0  0
 36 45  1  0  0  0  0
 45 46  1  0  0  0  0
 46 47  1  0  0  0  0
 47 48  1  0  0  0  0
 36 49  1  0  0  0  0
 48 49  1  0  0  0  0
 43 50  2  0  0  0  0
 50 51  1  0  0  0  0
 41 52  1  0  0  0  0
 51 52  2  0  0  0  0
 52 53  1  0  0  0  0
 35 54  2  0  0  0  0
 38 54  1  0  0  0  0
 54 55  1  0  0  0  0
 55 56  2  0  0  0  0
 56 57  1  0  0  0  0
 39 58  1  0  0  0  0
 57 58  2  0  0  0  0
 37 59  2  0  0  0  0
 39 59  1  0  0  0  0
 40 60  1  0  0  0  0
 59 60  1  0  0  0  0
 40 61  1  0  0  0  0
 58 61  1  0  0  0  0
 55 62  1  0  0  0  0
 61 62  2  0  0  0  0
M  END
$$$$
