8F1C
  PyMOL3.1          3D                             0

 51 55  0  0  0  0  0  0  0  0999 V2000
  143.7970   99.8140  107.7800 Cl  0  0  0  0  0  0  0  0  0  0  0  0
  144.2550  100.0340  104.7440 C   0  0  0  0  0  0  0  0  0  0  0  0
  143.3320  101.0520  105.3620 C   0  0  0  0  0  0  0  0  0  0  0  0
  142.7080  102.0580  104.5950 C   0  0  0  0  0  0  0  0  0  0  0  0
  141.8700  102.9500  105.2710 C   0  0  0  0  0  0  0  0  0  0  0  0
  141.6120  102.9290  106.5950 N   0  0  0  0  0  0  0  0  0  0  0  0
  142.2220  101.9580  107.3080 C   0  0  0  0  0  0  0  0  0  0  0  0
  143.0770  101.0100  106.7500 C   0  0  0  0  0  0  0  0  0  0  0  0
  141.9970  101.8800  108.6770 O   0  0  0  0  0  0  0  0  0  0  0  0
  141.1420  102.7840  109.2480 C   0  0  0  0  0  0  0  0  0  0  0  0
  139.7750  102.8040  108.9460 C   0  0  0  0  0  0  0  0  0  0  0  0
  138.9290  103.7410  109.5550 C   0  0  0  0  0  0  0  0  0  0  0  0
  139.4350  104.6600  110.4720 C   0  0  0  0  0  0  0  0  0  0  0  0
  140.7840  104.6140  110.7530 C   0  0  0  0  0  0  0  0  0  0  0  0
  141.6390  103.6960  110.1610 C   0  0  0  0  0  0  0  0  0  0  0  0
  143.0220  103.9130  110.6810 C   0  0  0  0  0  0  0  0  0  0  0  0
  142.8050  105.3030  111.3150 C   0  0  0  0  0  0  0  0  0  0  0  0
  141.4020  105.4610  111.6360 O   0  0  0  0  0  0  0  0  0  0  0  0
  143.3720  102.8650  111.7390 C   0  0  0  0  0  0  0  0  0  0  0  0
  144.1210  103.9590  109.6260 C   0  0  0  0  0  0  0  0  0  0  0  0
  142.8760  102.2030  103.2040 N   0  0  0  0  0  0  0  0  0  0  0  0
  143.3500  103.3820  102.5880 C   0  0  0  0  0  0  0  0  0  0  0  0
  143.3710  103.1470  101.2330 C   0  0  0  0  0  0  0  0  0  0  0  0
  143.7970  104.1380  100.4100 C   0  0  0  0  0  0  0  0  0  0  0  0
  144.1940  105.3270  100.9110 N   0  0  0  0  0  0  0  0  0  0  0  0
  144.1390  105.4730  102.2630 C   0  0  0  0  0  0  0  0  0  0  0  0
  143.7290  104.5360  103.1490 N   0  0  0  0  0  0  0  0  0  0  0  0
  144.5790  106.7890  102.8180 C   0  0  0  0  0  0  0  0  0  0  0  0
  142.9240  101.8640  100.9650 N   0  0  0  0  0  0  0  0  0  0  0  0
  142.6000  101.2430  102.1900 C   0  0  0  0  0  0  0  0  0  0  0  0
  142.1750  100.1010  102.3020 O   0  0  0  0  0  0  0  0  0  0  0  0
  142.8420  101.4450  100.0490 H   0  0  0  0  0  0  0  0  0  0  0  0
  139.3580  102.0980  108.2320 H   0  0  0  0  0  0  0  0  0  0  0  0
  137.8700  103.7500  109.3110 H   0  0  0  0  0  0  0  0  0  0  0  0
  138.7870  105.3860  110.9470 H   0  0  0  0  0  0  0  0  0  0  0  0
  143.8430  104.0300   99.3360 H   0  0  0  0  0  0  0  0  0  0  0  0
  141.3530  103.7510  104.7480 H   0  0  0  0  0  0  0  0  0  0  0  0
  143.0670  106.1150  110.6260 H   0  0  0  0  0  0  0  0  0  0  0  0
  143.3930  105.4400  112.2290 H   0  0  0  0  0  0  0  0  0  0  0  0
  144.4570  102.8000  111.8710 H   0  0  0  0  0  0  0  0  0  0  0  0
  142.9330  103.1030  112.7140 H   0  0  0  0  0  0  0  0  0  0  0  0
  143.0100  101.8730  111.4500 H   0  0  0  0  0  0  0  0  0  0  0  0
  145.0700  104.2710  110.0730 H   0  0  0  0  0  0  0  0  0  0  0  0
  144.2810  102.9780  109.1710 H   0  0  0  0  0  0  0  0  0  0  0  0
  143.8800  104.6620  108.8220 H   0  0  0  0  0  0  0  0  0  0  0  0
  143.9110  107.1090  103.6230 H   0  0  0  0  0  0  0  0  0  0  0  0
  145.5920  106.6970  103.2170 H   0  0  0  0  0  0  0  0  0  0  0  0
  144.5730  107.5550  102.0380 H   0  0  0  0  0  0  0  0  0  0  0  0
  145.0990   99.8140  105.4030 H   0  0  0  0  0  0  0  0  0  0  0  0
  143.7170   99.1070  104.5390 H   0  0  0  0  0  0  0  0  0  0  0  0
  144.7170  100.4010  103.8250 H   0  0  0  0  0  0  0  0  0  0  0  0
  2  3  1  0  0  0  0
  3  4  1  0  0  0  0
  4  5  2  0  0  0  0
  5  6  1  0  0  0  0
  6  7  2  0  0  0  0
  1  8  1  0  0  0  0
  3  8  2  0  0  0  0
  7  8  1  0  0  0  0
  7  9  1  0  0  0  0
  9 10  1  0  0  0  0
 10 11  2  0  0  0  0
 11 12  1  0  0  0  0
 12 13  2  0  0  0  0
 13 14  1  0  0  0  0
 10 15  1  0  0  0  0
 14 15  2  0  0  0  0
 15 16  1  0  0  0  0
 16 17  1  0  0  0  0
 14 18  1  0  0  0  0
 17 18  1  0  0  0  0
 16 19  1  0  0  0  0
 16 20  1  0  0  0  0
  4 21  1  0  0  0  0
 21 22  1  0  0  0  0
 22 23  2  0  0  0  0
 23 24  1  0  0  0  0
 24 25  2  0  0  0  0
 25 26  1  0  0  0  0
 22 27  1  0  0  0  0
 26 27  2  0  0  0  0
 26 28  1  0  0  0  0
 23 29  1  0  0  0  0
 21 30  1  0  0  0  0
 29 30  1  0  0  0  0
 30 31  2  0  0  0  0
 29 32  1  0  0  0  0
 11 33  1  0  0  0  0
 12 34  1  0  0  0  0
 13 35  1  0  0  0  0
 24 36  1  0  0  0  0
  5 37  1  0  0  0  0
 17 38  1  0  0  0  0
 17 39  1  0  0  0  0
 19 40  1  0  0  0  0
 19 41  1  0  0  0  0
 19 42  1  0  0  0  0
 20 43  1  0  0  0  0
 20 44  1  0  0  0  0
 20 45  1  0  0  0  0
 28 46  1  0  0  0  0
 28 47  1  0  0  0  0
 28 48  1  0  0  0  0
  2 49  1  0  0  0  0
  2 50  1  0  0  0  0
  2 51  1  0  0  0  0
M  END
$$$$
