7SIL
  PyMOL3.1          3D                             0

 21 22  0  0  0  0  0  0  0  0999 V2000
  222.7370  205.1750  187.2860 Cl  0  0  0  0  0  0  0  0  0  0  0  0
  220.9510  199.7110  181.1420 C   0  0  0  0  0  0  0  0  0  0  0  0
  221.5400  201.0930  180.8200 C   0  0  0  0  0  0  0  0  0  0  0  0
  222.5920  200.9820  179.7260 C   0  0  0  0  0  0  0  0  0  0  0  0
  222.4920  201.7610  178.5740 C   0  0  0  0  0  0  0  0  0  0  0  0
  223.4620  201.6500  177.5760 C   0  0  0  0  0  0  0  0  0  0  0  0
  224.5400  200.7820  177.6910 C   0  0  0  0  0  0  0  0  0  0  0  0
  224.6290  200.0150  178.8410 C   0  0  0  0  0  0  0  0  0  0  0  0
  223.6700  200.1110  179.8450 C   0  0  0  0  0  0  0  0  0  0  0  0
  223.3090  202.4390  176.4650 O   0  0  0  0  0  0  0  0  0  0  0  0
  223.0690  203.7970  176.7540 C   0  0  0  0  0  0  0  0  0  0  0  0
  222.1090  201.6700  182.0790 N   0  0  0  0  0  0  0  0  0  0  0  0
  221.5440  202.9830  182.5000 C   0  0  0  0  0  0  0  0  0  0  0  0
  222.3350  203.6470  183.6670 C   0  0  0  0  0  0  0  0  0  0  0  0
  221.5590  204.7330  184.4430 C   0  0  0  0  0  0  0  0  0  0  0  0
  222.3220  206.0040  184.7270 C   0  0  0  0  0  0  0  0  0  0  0  0
  222.5090  206.9840  183.7460 C   0  0  0  0  0  0  0  0  0  0  0  0
  223.2120  208.1590  184.0040 C   0  0  0  0  0  0  0  0  0  0  0  0
  223.7570  208.4020  185.2580 C   0  0  0  0  0  0  0  0  0  0  0  0
  223.5920  207.4530  186.2570 C   0  0  0  0  0  0  0  0  0  0  0  0
  222.8850  206.2910  185.9700 C   0  0  0  0  0  0  0  0  0  0  0  0
  2  3  1  0  0  0  0
  3  4  1  0  0  0  0
  3 12  1  0  0  0  0
  4  5  4  0  0  0  0
  4  9  4  0  0  0  0
  5  6  4  0  0  0  0
  6  7  4  0  0  0  0
  6 10  1  0  0  0  0
  7  8  4  0  0  0  0
  8  9  4  0  0  0  0
 10 11  1  0  0  0  0
 12 13  1  0  0  0  0
 13 14  1  0  0  0  0
 14 15  1  0  0  0  0
 15 16  1  0  0  0  0
 16 17  4  0  0  0  0
 16 21  4  0  0  0  0
 17 18  4  0  0  0  0
 18 19  4  0  0  0  0
 19 20  4  0  0  0  0
 20 21  4  0  0  0  0
  1 21  1  0  0  0  0
M  END
$$$$
