8DB7
  PyMOL3.1          3D                             0

 13 14  0  0  0  0  0  0  0  0999 V2000
   32.2380  -30.9900    0.7530 C   0  0  0  0  0  0  0  0  0  0  0  0
   33.3420  -31.7880    0.9700 C   0  0  0  0  0  0  0  0  0  0  0  0
   33.3100  -33.0940    0.5320 C   0  0  0  0  0  0  0  0  0  0  0  0
   32.2000  -33.6000   -0.1210 C   0  0  0  0  0  0  0  0  0  0  0  0
   32.2630  -34.9900   -0.5420 N   0  0  0  0  0  0  0  0  0  0  0  0
   31.1230  -35.8040   -0.8800 C   0  0  0  0  0  0  0  0  0  0  0  0
   29.7130  -35.4050   -0.9130 N   0  0  0  0  0  0  0  0  0  0  0  0
   28.9410  -36.5560   -1.3270 C   0  0  0  0  0  0  0  0  0  0  0  0
   29.8690  -37.6990   -1.5790 C   0  0  0  0  0  0  0  0  0  0  0  0
   31.2010  -37.2130   -1.2950 N   0  0  0  0  0  0  0  0  0  0  0  0
   31.0960  -32.7940   -0.3290 C   0  0  0  0  0  0  0  0  0  0  0  0
   31.1090  -31.4780    0.1080 C   0  0  0  0  0  0  0  0  0  0  0  0
   32.2890  -29.7100    1.1860 F   0  0  0  0  0  0  0  0  0  0  0  0
  1  2  1  0  0  0  0
  2  3  2  0  0  0  0
  3  4  1  0  0  0  0
  4  5  1  0  0  0  0
  5  6  1  0  0  0  0
  6  7  1  0  0  0  0
  7  8  1  0  0  0  0
  8  9  1  0  0  0  0
  6 10  2  0  0  0  0
  9 10  1  0  0  0  0
  4 11  2  0  0  0  0
  1 12  2  0  0  0  0
 11 12  1  0  0  0  0
  1 13  1  0  0  0  0
M  END
$$$$
