8DB7
  PyMOL3.1          3D                             0

 13 14  0  0  0  0  0  0  0  0999 V2000
   20.3170  -38.6970   40.1930 C   0  0  0  0  0  0  0  0  0  0  0  0
   21.3140  -39.1980   41.0040 C   0  0  0  0  0  0  0  0  0  0  0  0
   21.2860  -40.5280   41.3770 C   0  0  0  0  0  0  0  0  0  0  0  0
   20.2710  -41.3630   40.9460 C   0  0  0  0  0  0  0  0  0  0  0  0
   20.2430  -42.7670   41.3290 N   0  0  0  0  0  0  0  0  0  0  0  0
   21.4490  -43.5050   41.6450 C   0  0  0  0  0  0  0  0  0  0  0  0
   22.8440  -42.9990   41.6570 N   0  0  0  0  0  0  0  0  0  0  0  0
   23.7160  -44.0810   42.0400 C   0  0  0  0  0  0  0  0  0  0  0  0
   22.8520  -45.2870   42.2760 C   0  0  0  0  0  0  0  0  0  0  0  0
   21.4740  -44.9210   42.0330 N   0  0  0  0  0  0  0  0  0  0  0  0
   19.2740  -40.8520   40.1310 C   0  0  0  0  0  0  0  0  0  0  0  0
   19.2870  -39.5160   39.7600 C   0  0  0  0  0  0  0  0  0  0  0  0
   20.3510  -37.3870   39.8330 F   0  0  0  0  0  0  0  0  0  0  0  0
  1  2  1  0  0  0  0
  2  3  2  0  0  0  0
  3  4  1  0  0  0  0
  4  5  1  0  0  0  0
  5  6  1  0  0  0  0
  6  7  1  0  0  0  0
  7  8  1  0  0  0  0
  8  9  1  0  0  0  0
  6 10  2  0  0  0  0
  9 10  1  0  0  0  0
  4 11  2  0  0  0  0
  1 12  2  0  0  0  0
 11 12  1  0  0  0  0
  1 13  1  0  0  0  0
M  END
$$$$
