7MIG
  PyMOL3.1          3D                             0

 53 56  0  0  0  0  0  0  0  0999 V2000
  129.1650  166.4250  168.9640 C   0  0  0  0  0  0  0  0  0  0  0  0
  127.2910  164.9560  168.6770 N   0  0  0  0  0  0  0  0  0  0  0  0
  126.5850  178.4840  171.5570 O   0  0  0  0  0  0  0  0  0  0  0  0
  124.0370  176.7750  171.6360 S   0  0  0  0  0  0  0  0  0  0  0  0
  128.6130  165.1420  168.8990 C   0  0  0  0  0  0  0  0  0  0  0  0
  128.3790  167.5280  168.8560 N   0  0  0  0  0  0  0  0  0  0  0  0
  128.6940  177.1780  171.4430 O   0  0  0  0  0  0  0  0  0  0  0  0
  127.2420  177.1830  171.6480 S   0  0  0  0  0  0  0  0  0  0  0  0
  126.5160  166.0600  168.5430 C   0  0  0  0  0  0  0  0  0  0  0  0
  126.0320  170.9440  168.0070 N   0  0  0  0  0  0  0  0  0  0  0  0
  122.7370  171.9100  170.1550 O   0  0  0  0  0  0  0  0  0  0  0  0
  127.0440  167.3510  168.6490 C   0  0  0  0  0  0  0  0  0  0  0  0
  124.1000  172.1430  168.3640 N   0  0  0  0  0  0  0  0  0  0  0  0
  130.6570  166.6780  169.0960 C   0  0  0  0  0  0  0  0  0  0  0  0
  124.6620  175.1160  169.7940 N   0  0  0  0  0  0  0  0  0  0  0  0
  126.2070  168.5730  168.5200 C   0  0  0  0  0  0  0  0  0  0  0  0
  126.5370  176.1120  170.7710 N   0  0  0  0  0  0  0  0  0  0  0  0
  124.8390  168.5560  168.8220 C   0  0  0  0  0  0  0  0  0  0  0  0
  124.0870  169.7230  168.7310 C   0  0  0  0  0  0  0  0  0  0  0  0
  124.7290  170.9070  168.3620 C   0  0  0  0  0  0  0  0  0  0  0  0
  126.7450  169.7950  168.0930 C   0  0  0  0  0  0  0  0  0  0  0  0
  122.6170  174.0330  168.9760 C   0  0  0  0  0  0  0  0  0  0  0  0
  123.3450  175.0160  169.9070 C   0  0  0  0  0  0  0  0  0  0  0  0
  121.0930  174.0460  169.2620 C   0  0  0  0  0  0  0  0  0  0  0  0
  122.8200  174.5100  167.5090 C   0  0  0  0  0  0  0  0  0  0  0  0
  122.7910  175.8590  170.8680 C   0  0  0  0  0  0  0  0  0  0  0  0
  125.2090  175.9530  170.6360 C   0  0  0  0  0  0  0  0  0  0  0  0
  126.9290  176.6280  173.4280 C   0  0  0  0  0  0  0  0  0  0  0  0
  127.5700  175.3480  173.8770 C   0  0  0  0  0  0  0  0  0  0  0  0
  128.0840  176.6710  174.3980 C   0  0  0  0  0  0  0  0  0  0  0  0
  123.1430  172.5810  169.2000 C   0  0  0  0  0  0  0  0  0  0  0  0
  131.3710  165.5950  168.7990 F   0  0  0  0  0  0  0  0  0  0  0  0
  131.0180  167.6560  168.2670 F   0  0  0  0  0  0  0  0  0  0  0  0
  130.9540  167.0440  170.3330 F   0  0  0  0  0  0  0  0  0  0  0  0
  129.2540  164.2830  169.0280 H   0  0  0  0  0  0  0  0  0  0  0  0
  125.4600  165.9390  168.3490 H   0  0  0  0  0  0  0  0  0  0  0  0
  124.3970  172.7930  167.6500 H   0  0  0  0  0  0  0  0  0  0  0  0
  127.1300  175.4780  170.2550 H   0  0  0  0  0  0  0  0  0  0  0  0
  124.3670  167.6340  169.1270 H   0  0  0  0  0  0  0  0  0  0  0  0
  123.0280  169.7130  168.9420 H   0  0  0  0  0  0  0  0  0  0  0  0
  127.7890  169.8220  167.8160 H   0  0  0  0  0  0  0  0  0  0  0  0
  121.7380  175.9290  171.0980 H   0  0  0  0  0  0  0  0  0  0  0  0
  125.9430  176.8470  173.8380 H   0  0  0  0  0  0  0  0  0  0  0  0
  120.9120  173.7160  170.2850 H   0  0  0  0  0  0  0  0  0  0  0  0
  120.5880  173.3730  168.5690 H   0  0  0  0  0  0  0  0  0  0  0  0
  120.7080  175.0570  169.1330 H   0  0  0  0  0  0  0  0  0  0  0  0
  122.1340  175.3290  167.2940 H   0  0  0  0  0  0  0  0  0  0  0  0
  122.6220  173.6830  166.8280 H   0  0  0  0  0  0  0  0  0  0  0  0
  123.8460  174.8520  167.3770 H   0  0  0  0  0  0  0  0  0  0  0  0
  128.1720  174.7670  173.1790 H   0  0  0  0  0  0  0  0  0  0  0  0
  126.9890  174.7620  174.5890 H   0  0  0  0  0  0  0  0  0  0  0  0
  129.0550  177.0450  174.0740 H   0  0  0  0  0  0  0  0  0  0  0  0
  127.8170  176.9000  175.4300 H   0  0  0  0  0  0  0  0  0  0  0  0
  1  5  4  0  0  0  0
  1  6  4  0  0  0  0
  2  5  4  0  0  0  0
  2  9  4  0  0  0  0
  3  8  2  0  0  0  0
  5 35  1  0  0  0  0
  7  8  2  0  0  0  0
  9 36  1  0  0  0  0
 10 20  4  0  0  0  0
 10 21  4  0  0  0  0
  6 12  4  0  0  0  0
  9 12  4  0  0  0  0
 12 16  1  0  0  0  0
 13 37  1  0  0  0  0
  1 14  1  0  0  0  0
 14 32  1  0  0  0  0
 14 33  1  0  0  0  0
 14 34  1  0  0  0  0
 16 18  4  0  0  0  0
 16 21  4  0  0  0  0
  8 17  1  0  0  0  0
 17 38  1  0  0  0  0
 18 19  4  0  0  0  0
 18 39  1  0  0  0  0
 19 20  4  0  0  0  0
 19 40  1  0  0  0  0
 13 20  1  0  0  0  0
 21 41  1  0  0  0  0
 22 23  1  0  0  0  0
 22 25  1  0  0  0  0
 15 23  4  0  0  0  0
 22 24  1  0  0  0  0
 24 44  1  0  0  0  0
 24 45  1  0  0  0  0
 24 46  1  0  0  0  0
 25 47  1  0  0  0  0
 25 48  1  0  0  0  0
 25 49  1  0  0  0  0
  4 26  4  0  0  0  0
 23 26  4  0  0  0  0
 26 42  1  0  0  0  0
  4 27  4  0  0  0  0
 15 27  4  0  0  0  0
 17 27  1  0  0  0  0
  8 28  1  0  0  0  0
 28 29  1  0  0  0  0
 28 30  1  0  0  0  0
 28 43  1  0  0  0  0
 29 30  1  0  0  0  0
 29 50  1  0  0  0  0
 29 51  1  0  0  0  0
 30 52  1  0  0  0  0
 30 53  1  0  0  0  0
 11 31  2  0  0  0  0
 13 31  1  0  0  0  0
 22 31  1  0  0  0  0
M  END
$$$$
