7MIG
  PyMOL3.1          3D                             0

 53 56  0  0  0  0  0  0  0  0999 V2000
  185.8310  166.4190  146.0290 C   0  0  0  0  0  0  0  0  0  0  0  0
  187.7060  164.9510  146.3160 N   0  0  0  0  0  0  0  0  0  0  0  0
  188.4050  178.4800  143.4350 O   0  0  0  0  0  0  0  0  0  0  0  0
  190.9540  176.7720  143.3570 S   0  0  0  0  0  0  0  0  0  0  0  0
  186.3840  165.1370  146.0950 C   0  0  0  0  0  0  0  0  0  0  0  0
  186.6170  167.5230  146.1370 N   0  0  0  0  0  0  0  0  0  0  0  0
  186.2970  177.1720  143.5490 O   0  0  0  0  0  0  0  0  0  0  0  0
  187.7490  177.1790  143.3450 S   0  0  0  0  0  0  0  0  0  0  0  0
  188.4810  166.0550  146.4500 C   0  0  0  0  0  0  0  0  0  0  0  0
  188.9620  170.9400  146.9860 N   0  0  0  0  0  0  0  0  0  0  0  0
  192.2570  171.9080  144.8380 O   0  0  0  0  0  0  0  0  0  0  0  0
  187.9510  167.3460  146.3440 C   0  0  0  0  0  0  0  0  0  0  0  0
  190.8940  172.1390  146.6290 N   0  0  0  0  0  0  0  0  0  0  0  0
  184.3390  166.6720  145.8980 C   0  0  0  0  0  0  0  0  0  0  0  0
  190.3300  175.1130  145.1990 N   0  0  0  0  0  0  0  0  0  0  0  0
  188.7880  168.5690  146.4730 C   0  0  0  0  0  0  0  0  0  0  0  0
  188.4550  176.1080  144.2210 N   0  0  0  0  0  0  0  0  0  0  0  0
  190.1560  168.5520  146.1710 C   0  0  0  0  0  0  0  0  0  0  0  0
  190.9070  169.7200  146.2620 C   0  0  0  0  0  0  0  0  0  0  0  0
  190.2650  170.9030  146.6310 C   0  0  0  0  0  0  0  0  0  0  0  0
  188.2500  169.7900  146.9000 C   0  0  0  0  0  0  0  0  0  0  0  0
  192.3750  174.0310  146.0170 C   0  0  0  0  0  0  0  0  0  0  0  0
  191.6480  175.0130  145.0860 C   0  0  0  0  0  0  0  0  0  0  0  0
  193.8990  174.0440  145.7310 C   0  0  0  0  0  0  0  0  0  0  0  0
  192.1720  174.5080  147.4840 C   0  0  0  0  0  0  0  0  0  0  0  0
  192.2010  175.8560  144.1240 C   0  0  0  0  0  0  0  0  0  0  0  0
  189.7830  175.9500  144.3570 C   0  0  0  0  0  0  0  0  0  0  0  0
  188.0630  176.6230  141.5650 C   0  0  0  0  0  0  0  0  0  0  0  0
  187.4220  175.3430  141.1150 C   0  0  0  0  0  0  0  0  0  0  0  0
  186.9070  176.6660  140.5940 C   0  0  0  0  0  0  0  0  0  0  0  0
  191.8500  172.5790  145.7930 C   0  0  0  0  0  0  0  0  0  0  0  0
  183.6260  165.5880  146.1940 F   0  0  0  0  0  0  0  0  0  0  0  0
  183.9770  167.6500  146.7260 F   0  0  0  0  0  0  0  0  0  0  0  0
  184.0420  167.0370  144.6600 F   0  0  0  0  0  0  0  0  0  0  0  0
  185.7430  164.2770  145.9670 H   0  0  0  0  0  0  0  0  0  0  0  0
  189.5370  165.9350  146.6440 H   0  0  0  0  0  0  0  0  0  0  0  0
  190.5970  172.7880  147.3440 H   0  0  0  0  0  0  0  0  0  0  0  0
  187.8620  175.4720  144.7350 H   0  0  0  0  0  0  0  0  0  0  0  0
  190.6290  167.6300  145.8670 H   0  0  0  0  0  0  0  0  0  0  0  0
  191.9660  169.7110  146.0510 H   0  0  0  0  0  0  0  0  0  0  0  0
  187.2060  169.8160  147.1770 H   0  0  0  0  0  0  0  0  0  0  0  0
  193.2540  175.9260  143.8920 H   0  0  0  0  0  0  0  0  0  0  0  0
  189.0490  176.8420  141.1550 H   0  0  0  0  0  0  0  0  0  0  0  0
  194.0800  173.7140  144.7080 H   0  0  0  0  0  0  0  0  0  0  0  0
  194.2840  175.0560  145.8600 H   0  0  0  0  0  0  0  0  0  0  0  0
  194.4050  173.3720  146.4240 H   0  0  0  0  0  0  0  0  0  0  0  0
  192.8570  175.3280  147.6980 H   0  0  0  0  0  0  0  0  0  0  0  0
  192.3710  173.6810  148.1660 H   0  0  0  0  0  0  0  0  0  0  0  0
  191.1450  174.8480  147.6170 H   0  0  0  0  0  0  0  0  0  0  0  0
  187.9610  174.6690  140.4500 H   0  0  0  0  0  0  0  0  0  0  0  0
  186.7870  174.8560  141.8550 H   0  0  0  0  0  0  0  0  0  0  0  0
  185.9360  177.0400  140.9180 H   0  0  0  0  0  0  0  0  0  0  0  0
  187.1740  176.8960  139.5620 H   0  0  0  0  0  0  0  0  0  0  0  0
  1  5  4  0  0  0  0
  1  6  4  0  0  0  0
  2  5  4  0  0  0  0
  2  9  4  0  0  0  0
  3  8  2  0  0  0  0
  5 35  1  0  0  0  0
  7  8  2  0  0  0  0
  9 36  1  0  0  0  0
 10 20  4  0  0  0  0
 10 21  4  0  0  0  0
  6 12  4  0  0  0  0
  9 12  4  0  0  0  0
 12 16  1  0  0  0  0
 13 37  1  0  0  0  0
  1 14  1  0  0  0  0
 14 32  1  0  0  0  0
 14 33  1  0  0  0  0
 14 34  1  0  0  0  0
 16 18  4  0  0  0  0
 16 21  4  0  0  0  0
  8 17  1  0  0  0  0
 17 38  1  0  0  0  0
 18 19  4  0  0  0  0
 18 39  1  0  0  0  0
 19 20  4  0  0  0  0
 19 40  1  0  0  0  0
 13 20  1  0  0  0  0
 21 41  1  0  0  0  0
 22 23  1  0  0  0  0
 22 25  1  0  0  0  0
 15 23  4  0  0  0  0
 22 24  1  0  0  0  0
 24 44  1  0  0  0  0
 24 45  1  0  0  0  0
 24 46  1  0  0  0  0
 25 47  1  0  0  0  0
 25 48  1  0  0  0  0
 25 49  1  0  0  0  0
  4 26  4  0  0  0  0
 23 26  4  0  0  0  0
 26 42  1  0  0  0  0
  4 27  4  0  0  0  0
 15 27  4  0  0  0  0
 17 27  1  0  0  0  0
  8 28  1  0  0  0  0
 28 29  1  0  0  0  0
 28 30  1  0  0  0  0
 28 43  1  0  0  0  0
 29 30  1  0  0  0  0
 29 50  1  0  0  0  0
 29 51  1  0  0  0  0
 30 52  1  0  0  0  0
 30 53  1  0  0  0  0
 11 31  2  0  0  0  0
 13 31  1  0  0  0  0
 22 31  1  0  0  0  0
M  END
$$$$
