7TUY
  PyMOL3.1          3D                             0

 31 34  0  0  0  0  0  0  0  0999 V2000
  130.6710  113.3590  159.4140 Cl  0  0  0  0  0  0  0  0  0  0  0  0
  129.7600  111.1360  161.2860 Cl  0  0  0  0  0  0  0  0  0  0  0  0
  118.9470  109.1410  147.2430 Cl  0  0  0  0  0  0  0  0  0  0  0  0
  123.4580  114.4990  157.4750 O   0  0  0  0  0  0  0  0  0  0  0  0
  122.9710  115.9780  159.0310 O   0  0  0  0  0  0  0  0  0  0  0  0
  124.7710  109.4310  154.2930 O   0  0  0  0  0  0  0  0  0  0  0  0
  124.2100  111.4950  154.9360 N   0  0  0  0  0  0  0  0  0  0  0  0
  125.2260  115.4040  158.5260 N   0  0  0  0  0  0  0  0  0  0  0  0
  124.6100  114.0350  156.7700 C   0  0  0  0  0  0  0  0  0  0  0  0
  124.7870  112.5850  157.2310 C   0  0  0  0  0  0  0  0  0  0  0  0
  124.2030  114.0130  155.3010 C   0  0  0  0  0  0  0  0  0  0  0  0
  125.7510  115.0330  157.1990 C   0  0  0  0  0  0  0  0  0  0  0  0
  125.1220  111.5360  156.1440 C   0  0  0  0  0  0  0  0  0  0  0  0
  123.4530  112.7590  154.8210 C   0  0  0  0  0  0  0  0  0  0  0  0
  123.8740  115.3560  158.4170 C   0  0  0  0  0  0  0  0  0  0  0  0
  126.0050  115.6790  159.7620 C   0  0  0  0  0  0  0  0  0  0  0  0
  124.0580  110.4050  154.0300 C   0  0  0  0  0  0  0  0  0  0  0  0
  126.9390  114.5310  160.1650 C   0  0  0  0  0  0  0  0  0  0  0  0
  123.1410  110.3220  152.8070 C   0  0  0  0  0  0  0  0  0  0  0  0
  128.2440  114.4480  159.6760 C   0  0  0  0  0  0  0  0  0  0  0  0
  126.5520  113.4870  161.0180 C   0  0  0  0  0  0  0  0  0  0  0  0
  122.6870  109.2730  152.0850 C   0  0  0  0  0  0  0  0  0  0  0  0
  129.0990  113.4080  160.0220 C   0  0  0  0  0  0  0  0  0  0  0  0
  127.4060  112.4380  161.3750 C   0  0  0  0  0  0  0  0  0  0  0  0
  128.6990  112.3910  160.8750 C   0  0  0  0  0  0  0  0  0  0  0  0
  121.7660  109.2310  150.8710 C   0  0  0  0  0  0  0  0  0  0  0  0
  120.3620  109.2720  150.9710 C   0  0  0  0  0  0  0  0  0  0  0  0
  122.2140  109.1610  149.5380 C   0  0  0  0  0  0  0  0  0  0  0  0
  119.4910  109.2460  149.8800 C   0  0  0  0  0  0  0  0  0  0  0  0
  121.3750  109.1330  148.4210 C   0  0  0  0  0  0  0  0  0  0  0  0
  120.0020  109.1760  148.5950 C   0  0  0  0  0  0  0  0  0  0  0  0
  4  9  1  0  0  0  0
  9 11  1  0  0  0  0
  9 10  1  0  0  0  0
 10 13  1  0  0  0  0
  8 12  1  0  0  0  0
  9 12  1  0  0  0  0
  7 13  1  0  0  0  0
  7 14  1  0  0  0  0
 11 14  1  0  0  0  0
  4 15  1  0  0  0  0
  5 15  2  0  0  0  0
  8 15  1  0  0  0  0
  8 16  1  0  0  0  0
 16 18  1  0  0  0  0
  6 17  2  0  0  0  0
  7 17  1  0  0  0  0
 17 19  1  0  0  0  0
 18 20  4  0  0  0  0
 18 21  4  0  0  0  0
 19 22  1  0  0  0  0
 20 23  4  0  0  0  0
 21 24  4  0  0  0  0
 22 26  1  0  0  0  0
  1 23  1  0  0  0  0
 23 25  4  0  0  0  0
 24 25  4  0  0  0  0
  2 25  1  0  0  0  0
 26 27  4  0  0  0  0
 26 28  4  0  0  0  0
 27 29  4  0  0  0  0
 28 30  4  0  0  0  0
 29 31  4  0  0  0  0
 30 31  4  0  0  0  0
  3 31  1  0  0  0  0
M  END
$$$$
