7OD0
  PyMOL3.1          3D                             0

108114  0  0  0  0  0  0  0  0999 V2000
    0.6110  -30.2860    0.4830 C   0  0  0  0  0  0  0  0  0  0  0  0
   -0.1800  -31.5190    0.2830 N   0  0  0  0  0  0  0  0  0  0  0  0
    1.5010  -32.2960   -3.4860 S   0  0  0  0  0  0  0  0  0  0  0  0
    1.3590  -29.8000   -0.7370 C   0  0  0  0  0  0  0  0  0  0  0  0
    2.4490  -31.0680   -3.9370 N   0  0  0  0  0  0  0  0  0  0  0  0
    1.8660  -28.5010   -0.8010 C   0  0  0  0  0  0  0  0  0  0  0  0
    1.1600  -31.8920   -1.9610 N   0  0  0  0  0  0  0  0  0  0  0  0
    2.5880  -28.0400   -1.8900 C   0  0  0  0  0  0  0  0  0  0  0  0
    2.8270  -28.8250   -2.9770 C   0  0  0  0  0  0  0  0  0  0  0  0
    2.3260  -30.1460   -2.9580 C   0  0  0  0  0  0  0  0  0  0  0  0
    1.5890  -30.6240   -1.8240 C   0  0  0  0  0  0  0  0  0  0  0  0
    0.4610  -32.2050    0.0570 H   0  0  0  0  0  0  0  0  0  0  0  0
   -0.7230  -31.3540   -0.4980 H   0  0  0  0  0  0  0  0  0  0  0  0
    1.2610  -30.4600    1.1970 H   0  0  0  0  0  0  0  0  0  0  0  0
    0.0110  -29.5740    0.7890 H   0  0  0  0  0  0  0  0  0  0  0  0
    1.7360  -27.9230   -0.0510 H   0  0  0  0  0  0  0  0  0  0  0  0
    2.9150  -27.1570   -1.8850 H   0  0  0  0  0  0  0  0  0  0  0  0
    3.3000  -28.5040   -3.7140 H   0  0  0  0  0  0  0  0  0  0  0  0
    5.5130  -42.9830   49.7360 C   0  0  0  0  0  0  0  0  0  0  0  0
    4.0890  -43.1680   50.0760 N   0  0  0  0  0  0  0  0  0  0  0  0
    4.3740  -41.1130   53.7070 S   0  0  0  0  0  0  0  0  0  0  0  0
    6.3580  -42.5340   50.9010 C   0  0  0  0  0  0  0  0  0  0  0  0
    5.9210  -40.7610   54.0230 N   0  0  0  0  0  0  0  0  0  0  0  0
    7.7330  -42.7750   50.9220 C   0  0  0  0  0  0  0  0  0  0  0  0
    4.5030  -41.5360   52.1540 N   0  0  0  0  0  0  0  0  0  0  0  0
    8.5360  -42.3410   51.9710 C   0  0  0  0  0  0  0  0  0  0  0  0
    8.0230  -41.6590   53.0460 C   0  0  0  0  0  0  0  0  0  0  0  0
    6.6280  -41.4110   53.0670 C   0  0  0  0  0  0  0  0  0  0  0  0
    5.8030  -41.8530   51.9820 C   0  0  0  0  0  0  0  0  0  0  0  0
    3.7540  -42.2870   50.2830 H   0  0  0  0  0  0  0  0  0  0  0  0
    4.0790  -43.6880   50.8890 H   0  0  0  0  0  0  0  0  0  0  0  0
    5.5760  -42.3090   49.0270 H   0  0  0  0  0  0  0  0  0  0  0  0
    5.8760  -43.8240   49.3870 H   0  0  0  0  0  0  0  0  0  0  0  0
    8.1320  -43.2310   50.1840 H   0  0  0  0  0  0  0  0  0  0  0  0
    9.4590  -42.5200   51.9460 H   0  0  0  0  0  0  0  0  0  0  0  0
    8.5670  -41.3870   53.7520 H   0  0  0  0  0  0  0  0  0  0  0  0
   46.8810  -38.5800    0.5960 C   0  0  0  0  0  0  0  0  0  0  0  0
   47.9270  -39.5710    0.3440 N   0  0  0  0  0  0  0  0  0  0  0  0
   47.5010  -37.0130   -3.6530 S   0  0  0  0  0  0  0  0  0  0  0  0
   45.9260  -38.3910   -0.5570 C   0  0  0  0  0  0  0  0  0  0  0  0
   45.9030  -36.9700   -3.8940 N   0  0  0  0  0  0  0  0  0  0  0  0
   44.5950  -38.8160   -0.4570 C   0  0  0  0  0  0  0  0  0  0  0  0
   47.5530  -37.3120   -2.0630 N   0  0  0  0  0  0  0  0  0  0  0  0
   43.6770  -38.6160   -1.4810 C   0  0  0  0  0  0  0  0  0  0  0  0
   44.0300  -38.0110   -2.6640 C   0  0  0  0  0  0  0  0  0  0  0  0
   45.3700  -37.5810   -2.8150 C   0  0  0  0  0  0  0  0  0  0  0  0
   46.3210  -37.7660   -1.7490 C   0  0  0  0  0  0  0  0  0  0  0  0
   48.5710  -39.1130   -0.2100 H   0  0  0  0  0  0  0  0  0  0  0  0
   47.5100  -40.2430   -0.2050 H   0  0  0  0  0  0  0  0  0  0  0  0
   47.3100  -37.7200    0.7890 H   0  0  0  0  0  0  0  0  0  0  0  0
   46.3720  -38.8520    1.3880 H   0  0  0  0  0  0  0  0  0  0  0  0
   44.3050  -39.2230    0.3530 H   0  0  0  0  0  0  0  0  0  0  0  0
   42.7920  -38.9150   -1.3690 H   0  0  0  0  0  0  0  0  0  0  0  0
   43.4130  -37.9000   -3.3540 H   0  0  0  0  0  0  0  0  0  0  0  0
   30.8960    5.4330    0.3040 C   0  0  0  0  0  0  0  0  0  0  0  0
   30.4160    6.7620   -0.1040 N   0  0  0  0  0  0  0  0  0  0  0  0
   28.8450    5.2600   -3.7350 S   0  0  0  0  0  0  0  0  0  0  0  0
   31.0370    4.4550   -0.8410 C   0  0  0  0  0  0  0  0  0  0  0  0
   29.4980    3.8120   -4.0450 N   0  0  0  0  0  0  0  0  0  0  0  0
   31.9630    3.4190   -0.7980 C   0  0  0  0  0  0  0  0  0  0  0  0
   29.2830    5.4760   -2.1950 N   0  0  0  0  0  0  0  0  0  0  0  0
   32.0880    2.5010   -1.8290 C   0  0  0  0  0  0  0  0  0  0  0  0
   31.3210    2.5570   -2.9580 C   0  0  0  0  0  0  0  0  0  0  0  0
   30.3640    3.5910   -3.0390 C   0  0  0  0  0  0  0  0  0  0  0  0
   30.2220    4.5330   -1.9650 C   0  0  0  0  0  0  0  0  0  0  0  0
   29.5030    6.6320   -0.3850 H   0  0  0  0  0  0  0  0  0  0  0  0
   30.9340    6.9990   -0.8840 H   0  0  0  0  0  0  0  0  0  0  0  0
   30.2670    5.0610    0.9570 H   0  0  0  0  0  0  0  0  0  0  0  0
   31.7670    5.5320    0.7430 H   0  0  0  0  0  0  0  0  0  0  0  0
   32.5250    3.3380   -0.0300 H   0  0  0  0  0  0  0  0  0  0  0  0
   32.7340    1.8200   -1.7570 H   0  0  0  0  0  0  0  0  0  0  0  0
   31.4150    1.9330   -3.6430 H   0  0  0  0  0  0  0  0  0  0  0  0
   51.7040  -34.6860   49.6950 C   0  0  0  0  0  0  0  0  0  0  0  0
   52.6220  -35.6850   50.2270 N   0  0  0  0  0  0  0  0  0  0  0  0
   50.6970  -36.2890   53.7470 S   0  0  0  0  0  0  0  0  0  0  0  0
   50.9500  -34.0280   50.8190 C   0  0  0  0  0  0  0  0  0  0  0  0
   49.8020  -34.9820   54.0950 N   0  0  0  0  0  0  0  0  0  0  0  0
   50.5050  -32.7100   50.7510 C   0  0  0  0  0  0  0  0  0  0  0  0
   51.0640  -36.0140   52.1970 N   0  0  0  0  0  0  0  0  0  0  0  0
   49.7870  -32.1320   51.7920 C   0  0  0  0  0  0  0  0  0  0  0  0
   49.4960  -32.8130   52.9420 C   0  0  0  0  0  0  0  0  0  0  0  0
   49.9660  -34.1420   53.0500 C   0  0  0  0  0  0  0  0  0  0  0  0
   50.6860  -34.7420   51.9660 C   0  0  0  0  0  0  0  0  0  0  0  0
   52.0720  -36.3940   50.5820 H   0  0  0  0  0  0  0  0  0  0  0  0
   53.0880  -35.2650   50.9610 H   0  0  0  0  0  0  0  0  0  0  0  0
   51.0610  -35.1100   49.0900 H   0  0  0  0  0  0  0  0  0  0  0  0
   52.1960  -34.0010   49.1940 H   0  0  0  0  0  0  0  0  0  0  0  0
   50.6650  -32.2090   49.9550 H   0  0  0  0  0  0  0  0  0  0  0  0
   49.4940  -31.2410   51.7060 H   0  0  0  0  0  0  0  0  0  0  0  0
   49.0370  -32.4080   53.6450 H   0  0  0  0  0  0  0  0  0  0  0  0
   21.2420    1.4050   49.5120 C   0  0  0  0  0  0  0  0  0  0  0  0
   21.5700    2.7410   50.0490 N   0  0  0  0  0  0  0  0  0  0  0  0
   23.2590    1.5030   53.5000 S   0  0  0  0  0  0  0  0  0  0  0  0
   21.1030    0.4440   50.6580 C   0  0  0  0  0  0  0  0  0  0  0  0
   22.5750    0.1050   53.9320 N   0  0  0  0  0  0  0  0  0  0  0  0
   20.2120   -0.6280   50.6460 C   0  0  0  0  0  0  0  0  0  0  0  0
   22.7690    1.6380   51.9650 N   0  0  0  0  0  0  0  0  0  0  0  0
   20.1040   -1.4890   51.7340 C   0  0  0  0  0  0  0  0  0  0  0  0
   20.8480   -1.3200   52.8760 C   0  0  0  0  0  0  0  0  0  0  0  0
   21.7610   -0.2410   52.9110 C   0  0  0  0  0  0  0  0  0  0  0  0
   21.8810    0.6380   51.7850 C   0  0  0  0  0  0  0  0  0  0  0  0
   21.8660    3.2490   49.2830 H   0  0  0  0  0  0  0  0  0  0  0  0
   20.7230    3.1110   50.3250 H   0  0  0  0  0  0  0  0  0  0  0  0
   21.9520    1.0920   48.9120 H   0  0  0  0  0  0  0  0  0  0  0  0
   20.3990    1.4340   49.0110 H   0  0  0  0  0  0  0  0  0  0  0  0
   19.6730   -0.7740   49.8740 H   0  0  0  0  0  0  0  0  0  0  0  0
   19.4960   -2.2050   51.6920 H   0  0  0  0  0  0  0  0  0  0  0  0
   20.7760   -1.9060   53.5930 H   0  0  0  0  0  0  0  0  0  0  0  0
  1  2  1  0  0  0  0
  1  4  1  0  0  0  0
  3  5  1  0  0  0  0
  4  6  2  0  0  0  0
  3  7  1  0  0  0  0
  6  8  1  0  0  0  0
  8  9  2  0  0  0  0
  5 10  2  0  0  0  0
  9 10  1  0  0  0  0
  4 11  1  0  0  0  0
  7 11  2  0  0  0  0
 10 11  1  0  0  0  0
  2 12  1  0  0  0  0
  2 13  1  0  0  0  0
  1 14  1  0  0  0  0
  1 15  1  0  0  0  0
  6 16  1  0  0  0  0
  8 17  1  0  0  0  0
  9 18  1  0  0  0  0
 19 20  1  0  0  0  0
 19 22  1  0  0  0  0
 21 23  1  0  0  0  0
 22 24  2  0  0  0  0
 21 25  1  0  0  0  0
 24 26  1  0  0  0  0
 26 27  2  0  0  0  0
 23 28  2  0  0  0  0
 27 28  1  0  0  0  0
 22 29  1  0  0  0  0
 25 29  2  0  0  0  0
 28 29  1  0  0  0  0
 20 30  1  0  0  0  0
 20 31  1  0  0  0  0
 19 32  1  0  0  0  0
 19 33  1  0  0  0  0
 24 34  1  0  0  0  0
 26 35  1  0  0  0  0
 27 36  1  0  0  0  0
 37 38  1  0  0  0  0
 37 40  1  0  0  0  0
 39 41  1  0  0  0  0
 40 42  2  0  0  0  0
 39 43  1  0  0  0  0
 42 44  1  0  0  0  0
 44 45  2  0  0  0  0
 41 46  2  0  0  0  0
 45 46  1  0  0  0  0
 40 47  1  0  0  0  0
 43 47  2  0  0  0  0
 46 47  1  0  0  0  0
 38 48  1  0  0  0  0
 38 49  1  0  0  0  0
 37 50  1  0  0  0  0
 37 51  1  0  0  0  0
 42 52  1  0  0  0  0
 44 53  1  0  0  0  0
 45 54  1  0  0  0  0
 55 56  1  0  0  0  0
 55 58  1  0  0  0  0
 57 59  1  0  0  0  0
 58 60  2  0  0  0  0
 57 61  1  0  0  0  0
 60 62  1  0  0  0  0
 62 63  2  0  0  0  0
 59 64  2  0  0  0  0
 63 64  1  0  0  0  0
 58 65  1  0  0  0  0
 61 65  2  0  0  0  0
 64 65  1  0  0  0  0
 56 66  1  0  0  0  0
 56 67  1  0  0  0  0
 55 68  1  0  0  0  0
 55 69  1  0  0  0  0
 60 70  1  0  0  0  0
 62 71  1  0  0  0  0
 63 72  1  0  0  0  0
 73 74  1  0  0  0  0
 73 76  1  0  0  0  0
 75 77  1  0  0  0  0
 76 78  2  0  0  0  0
 75 79  1  0  0  0  0
 78 80  1  0  0  0  0
 80 81  2  0  0  0  0
 77 82  2  0  0  0  0
 81 82  1  0  0  0  0
 76 83  1  0  0  0  0
 79 83  2  0  0  0  0
 82 83  1  0  0  0  0
 74 84  1  0  0  0  0
 74 85  1  0  0  0  0
 73 86  1  0  0  0  0
 73 87  1  0  0  0  0
 78 88  1  0  0  0  0
 80 89  1  0  0  0  0
 81 90  1  0  0  0  0
 91 92  1  0  0  0  0
 91 94  1  0  0  0  0
 93 95  1  0  0  0  0
 94 96  2  0  0  0  0
 93 97  1  0  0  0  0
 96 98  1  0  0  0  0
 98 99  2  0  0  0  0
 95100  2  0  0  0  0
 99100  1  0  0  0  0
 94101  1  0  0  0  0
 97101  2  0  0  0  0
100101  1  0  0  0  0
 92102  1  0  0  0  0
 92103  1  0  0  0  0
 91104  1  0  0  0  0
 91105  1  0  0  0  0
 96106  1  0  0  0  0
 98107  1  0  0  0  0
 99108  1  0  0  0  0
M  END
$$$$
