9EPX
  PyMOL3.1          3D                             0

 37 42  0  0  0  0  0  0  0  0999 V2000
   36.6750   -4.0760    2.7800 Cl  0  0  0  0  0  0  0  0  0  0  0  0
   44.9420    5.7450   -9.2360 Cl  0  0  0  0  0  0  0  0  0  0  0  0
   37.6200   -3.7040    1.3760 C   0  0  0  0  0  0  0  0  0  0  0  0
   38.7500   -2.9300    1.5470 C   0  0  0  0  0  0  0  0  0  0  0  0
   39.5600   -2.6210    0.4650 C   0  0  0  0  0  0  0  0  0  0  0  0
   40.8040   -1.7970    0.6590 C   0  0  0  0  0  0  0  0  0  0  0  0
   41.2770   -1.1440   -0.6030 N   0  0  0  0  0  0  0  0  0  0  0  0
   42.1940    0.0260   -0.3640 C   0  0  0  0  0  0  0  0  0  0  0  0
   43.0330    0.5250   -1.5370 C   0  0  0  0  0  0  0  0  0  0  0  0
   44.0890    0.8770   -0.4700 C   0  0  0  0  0  0  0  0  0  0  0  0
   43.9840    2.3000    0.0990 C   0  0  0  0  0  0  0  0  0  0  0  0
   44.5950    3.3200   -0.8440 C   0  0  0  0  0  0  0  0  0  0  0  0
   45.9970    2.9560   -1.1110 N   0  0  0  0  0  0  0  0  0  0  0  0
   46.9990    4.1430   -1.6020 S   0  0  0  0  0  0  0  0  0  0  0  0
   46.3320    4.8130   -3.0820 C   0  0  0  0  0  0  0  0  0  0  0  0
   46.6210    4.1950   -4.2890 C   0  0  0  0  0  0  0  0  0  0  0  0
   46.0900    4.7400   -5.4450 C   0  0  0  0  0  0  0  0  0  0  0  0
   46.2670    4.2040   -7.0810 S   0  0  0  0  0  0  0  0  0  0  0  0
   45.2710    5.5150   -7.5750 C   0  0  0  0  0  0  0  0  0  0  0  0
   44.8230    6.3050   -6.6570 N   0  0  0  0  0  0  0  0  0  0  0  0
   45.2840    5.8780   -5.4140 C   0  0  0  0  0  0  0  0  0  0  0  0
   45.0100    6.4810   -4.1890 C   0  0  0  0  0  0  0  0  0  0  0  0
   45.5340    5.9480   -3.0220 C   0  0  0  0  0  0  0  0  0  0  0  0
   48.2420    3.5200   -1.9220 O   0  0  0  0  0  0  0  0  0  0  0  0
   46.9500    5.1590   -0.6020 O   0  0  0  0  0  0  0  0  0  0  0  0
   46.1090    1.6460   -1.7770 C   0  0  0  0  0  0  0  0  0  0  0  0
   45.5440    0.5770   -0.8600 C   0  0  0  0  0  0  0  0  0  0  0  0
   43.4610   -0.2040    0.4300 C   0  0  0  0  0  0  0  0  0  0  0  0
   39.2040   -3.1050   -0.7840 C   0  0  0  0  0  0  0  0  0  0  0  0
   38.0710   -3.8810   -0.9550 C   0  0  0  0  0  0  0  0  0  0  0  0
   37.2510   -4.1960    0.1270 C   0  0  0  0  0  0  0  0  0  0  0  0
   36.0220   -4.9980   -0.1260 C   0  0  0  0  0  0  0  0  0  0  0  0
   36.0880   -6.2100   -0.8100 C   0  0  0  0  0  0  0  0  0  0  0  0
   34.9380   -6.9320   -1.0820 C   0  0  0  0  0  0  0  0  0  0  0  0
   33.7080   -6.4600   -0.6760 C   0  0  0  0  0  0  0  0  0  0  0  0
   33.6250   -5.2630    0.0030 C   0  0  0  0  0  0  0  0  0  0  0  0
   34.7700   -4.5360    0.2780 C   0  0  0  0  0  0  0  0  0  0  0  0
  1  3  1  0  0  0  0
  3  4  1  0  0  0  0
  4  5  2  0  0  0  0
  5  6  1  0  0  0  0
  6  7  1  0  0  0  0
  7  8  1  0  0  0  0
  8  9  1  0  0  0  0
  9 10  1  0  0  0  0
 10 11  1  0  0  0  0
 11 12  1  0  0  0  0
 12 13  1  0  0  0  0
 13 14  1  0  0  0  0
 14 15  1  0  0  0  0
 15 16  2  0  0  0  0
 16 17  1  0  0  0  0
 17 18  1  0  0  0  0
  2 19  1  0  0  0  0
 18 19  1  0  0  0  0
 19 20  2  0  0  0  0
 17 21  2  0  0  0  0
 20 21  1  0  0  0  0
 21 22  1  0  0  0  0
 15 23  1  0  0  0  0
 22 23  2  0  0  0  0
 14 24  2  0  0  0  0
 14 25  2  0  0  0  0
 13 26  1  0  0  0  0
 10 27  1  0  0  0  0
 26 27  1  0  0  0  0
  8 28  1  0  0  0  0
 10 28  1  0  0  0  0
  5 29  1  0  0  0  0
 29 30  2  0  0  0  0
  3 31  2  0  0  0  0
 30 31  1  0  0  0  0
 31 32  1  0  0  0  0
 32 33  1  0  0  0  0
 33 34  2  0  0  0  0
 34 35  1  0  0  0  0
 35 36  2  0  0  0  0
 32 37  2  0  0  0  0
 36 37  1  0  0  0  0
M  END
$$$$
