8RQL
  PyMOL3.1          3D                             0

 20 21  0  0  0  0  0  0  0  0999 V2000
  159.8600  158.6380  187.7990 N   0  0  0  0  0  0  0  0  0  0  0  0
  160.5880  161.8100  191.5740 C   0  0  0  0  0  0  0  0  0  0  0  0
  160.8310  160.8530  187.3910 C   0  0  0  0  0  0  0  0  0  0  0  0
  161.2650  162.0830  187.8510 C   0  0  0  0  0  0  0  0  0  0  0  0
  161.1850  162.3880  189.1980 C   0  0  0  0  0  0  0  0  0  0  0  0
  160.6710  161.4630  190.0890 C   0  0  0  0  0  0  0  0  0  0  0  0
  160.2340  160.2330  189.6300 C   0  0  0  0  0  0  0  0  0  0  0  0
  160.3140  159.9290  188.2810 C   0  0  0  0  0  0  0  0  0  0  0  0
  157.4620  159.0840  187.4630 C   0  0  0  0  0  0  0  0  0  0  0  0
  156.5670  159.1270  189.7060 O   0  0  0  0  0  0  0  0  0  0  0  0
  156.3190  159.0060  186.6860 C   0  0  0  0  0  0  0  0  0  0  0  0
  157.1190  161.0440  188.8320 O   0  0  0  0  0  0  0  0  0  0  0  0
  156.3720  158.4070  185.4400 C   0  0  0  0  0  0  0  0  0  0  0  0
  157.5660  157.8870  184.9730 C   0  0  0  0  0  0  0  0  0  0  0  0
  158.7080  157.9650  185.7480 C   0  0  0  0  0  0  0  0  0  0  0  0
  158.6560  158.5620  186.9940 C   0  0  0  0  0  0  0  0  0  0  0  0
  157.0240  159.7930  188.7420 C   0  0  0  0  0  0  0  0  0  0  0  0
  161.8050  161.6210  192.1600 F   0  0  0  0  0  0  0  0  0  0  0  0
  160.2030  163.1100  191.7100 F   0  0  0  0  0  0  0  0  0  0  0  0
  159.6640  161.0130  192.1810 F   0  0  0  0  0  0  0  0  0  0  0  0
  3  4  2  0  0  0  0
  4  5  1  0  0  0  0
  2  6  1  0  0  0  0
  5  6  2  0  0  0  0
  6  7  1  0  0  0  0
  1  8  1  0  0  0  0
  3  8  1  0  0  0  0
  7  8  2  0  0  0  0
  9 11  2  0  0  0  0
 11 13  1  0  0  0  0
 13 14  2  0  0  0  0
 14 15  1  0  0  0  0
  1 16  1  0  0  0  0
  9 16  1  0  0  0  0
 15 16  2  0  0  0  0
  9 17  1  0  0  0  0
 10 17  2  0  0  0  0
 12 17  1  0  0  0  0
  2 18  1  0  0  0  0
  2 19  1  0  0  0  0
  2 20  1  0  0  0  0
M  END
$$$$
