7UAD
  PyMOL3.1          3D                             0

 26 28  0  0  0  0  0  0  0  0999 V2000
  -24.1060  -21.0150  -16.0260 N   0  0  0  0  0  0  0  0  0  0  0  0
  -23.6610  -25.4560  -15.6170 C   0  0  0  0  0  0  0  0  0  0  0  0
  -22.9000  -14.6440  -11.6170 O   0  0  0  0  0  0  0  0  0  0  0  0
  -23.7640  -24.4750  -14.4710 C   0  0  0  0  0  0  0  0  0  0  0  0
  -21.2560  -16.8240  -10.6830 N   0  0  0  0  0  0  0  0  0  0  0  0
  -17.9400  -16.5920   -9.3640 O   0  0  0  0  0  0  0  0  0  0  0  0
  -24.4850  -25.1060  -13.3090 C   0  0  0  0  0  0  0  0  0  0  0  0
  -20.0650  -16.8140   -8.5880 N   0  0  0  0  0  0  0  0  0  0  0  0
  -22.1700  -18.1950   -8.7800 O   0  0  0  0  0  0  0  0  0  0  0  0
  -24.4380  -23.2010  -14.9370 C   0  0  0  0  0  0  0  0  0  0  0  0
  -22.3810  -15.7640   -8.6690 O   0  0  0  0  0  0  0  0  0  0  0  0
  -23.4580  -22.2770  -15.6400 C   0  0  0  0  0  0  0  0  0  0  0  0
  -24.3790  -19.9600  -15.0250 C   0  0  0  0  0  0  0  0  0  0  0  0
  -24.5810  -18.6840  -15.8350 C   0  0  0  0  0  0  0  0  0  0  0  0
  -25.0060  -17.5470  -14.9190 C   0  0  0  0  0  0  0  0  0  0  0  0
  -24.0440  -17.3740  -13.7700 C   0  0  0  0  0  0  0  0  0  0  0  0
  -23.9070  -16.1180  -13.1790 C   0  0  0  0  0  0  0  0  0  0  0  0
  -22.9820  -15.8840  -12.1730 C   0  0  0  0  0  0  0  0  0  0  0  0
  -22.1770  -16.9360  -11.7360 C   0  0  0  0  0  0  0  0  0  0  0  0
  -19.7950  -16.8300  -10.9540 C   0  0  0  0  0  0  0  0  0  0  0  0
  -19.1340  -16.7640   -9.5990 C   0  0  0  0  0  0  0  0  0  0  0  0
  -22.3420  -18.1880  -12.3100 C   0  0  0  0  0  0  0  0  0  0  0  0
  -23.2390  -18.4360  -13.3360 C   0  0  0  0  0  0  0  0  0  0  0  0
  -23.2330  -19.7740  -14.0400 C   0  0  0  0  0  0  0  0  0  0  0  0
  -21.6200  -19.2060  -11.8040 F   0  0  0  0  0  0  0  0  0  0  0  0
  -21.6240  -16.9070   -9.0620 S   0  0  0  0  0  0  0  0  0  0  0  0
  2  4  1  0  0  0  0
  4  7  1  0  0  0  0
  4 10  1  0  0  0  0
  1 12  1  0  0  0  0
 10 12  1  0  0  0  0
  1 13  1  0  0  0  0
 13 14  1  0  0  0  0
 14 15  1  0  0  0  0
 15 16  1  0  0  0  0
 16 17  1  0  0  0  0
  3 18  1  0  0  0  0
 17 18  2  0  0  0  0
  5 19  1  0  0  0  0
 18 19  1  0  0  0  0
  5 20  1  0  0  0  0
  6 21  2  0  0  0  0
  8 21  1  0  0  0  0
 20 21  1  0  0  0  0
 19 22  2  0  0  0  0
 16 23  2  0  0  0  0
 22 23  1  0  0  0  0
 13 24  1  0  0  0  0
 23 24  1  0  0  0  0
 22 25  1  0  0  0  0
  5 26  1  0  0  0  0
  8 26  1  0  0  0  0
  9 26  2  0  0  0  0
 11 26  2  0  0  0  0
M  END
$$$$
