7LCJ
  PyMOL3.1          3D                             0

 41 47  0  0  0  0  0  0  0  0999 V2000
  126.2640  160.6740  109.0130 C   0  0  0  0  0  0  0  0  0  0  0  0
  127.5540  161.0630  109.3270 C   0  0  0  0  0  0  0  0  0  0  0  0
  128.7300  160.3260  108.6730 C   0  0  0  0  0  0  0  0  0  0  0  0
  129.8770  160.4210  109.4710 O   0  0  0  0  0  0  0  0  0  0  0  0
  129.7930  159.7330  110.6900 C   0  0  0  0  0  0  0  0  0  0  0  0
  129.0310  158.6670  110.7830 N   0  0  0  0  0  0  0  0  0  0  0  0
  128.9000  157.9720  111.8920 C   0  0  0  0  0  0  0  0  0  0  0  0
  127.9800  156.7560  111.8900 C   0  0  0  0  0  0  0  0  0  0  0  0
  127.9630  155.7750  113.0220 C   0  0  0  0  0  0  0  0  0  0  0  0
  126.6090  155.1200  113.2990 C   0  0  0  0  0  0  0  0  0  0  0  0
  125.6200  155.4660  112.2540 N   0  0  0  0  0  0  0  0  0  0  0  0
  124.3040  154.8980  112.4930 C   0  0  0  0  0  0  0  0  0  0  0  0
  124.0890  154.2670  113.8710 C   0  0  0  0  0  0  0  0  0  0  0  0
  124.3090  153.0030  114.1610 N   0  0  0  0  0  0  0  0  0  0  0  0
  123.9980  152.7970  115.4450 C   0  0  0  0  0  0  0  0  0  0  0  0
  124.0440  151.6620  116.2640 C   0  0  0  0  0  0  0  0  0  0  0  0
  123.6510  151.7460  117.5880 C   0  0  0  0  0  0  0  0  0  0  0  0
  123.2130  152.9600  118.1010 C   0  0  0  0  0  0  0  0  0  0  0  0
  122.7890  153.0490  119.5650 C   0  0  0  0  0  0  0  0  0  0  0  0
  122.6380  152.0010  120.2410 O   0  0  0  0  0  0  0  0  0  0  0  0
  122.6000  154.1690  120.0980 O   0  0  0  0  0  0  0  0  0  0  0  0
  123.1680  154.0850  117.2900 C   0  0  0  0  0  0  0  0  0  0  0  0
  123.5650  153.9990  115.9490 C   0  0  0  0  0  0  0  0  0  0  0  0
  123.6290  154.8860  114.9440 N   0  0  0  0  0  0  0  0  0  0  0  0
  123.2670  156.2920  115.0260 C   0  0  0  0  0  0  0  0  0  0  0  0
  121.8200  156.5090  114.7790 C   0  0  0  0  0  0  0  0  0  0  0  0
  120.9850  155.4820  115.2960 C   0  0  0  0  0  0  0  0  0  0  0  0
  120.3390  155.3820  114.0050 C   0  0  0  0  0  0  0  0  0  0  0  0
  121.3870  156.1650  113.4410 O   0  0  0  0  0  0  0  0  0  0  0  0
  125.4690  156.9380  112.1710 C   0  0  0  0  0  0  0  0  0  0  0  0
  126.7670  157.6050  111.7440 C   0  0  0  0  0  0  0  0  0  0  0  0
  129.5840  158.3440  113.0310 C   0  0  0  0  0  0  0  0  0  0  0  0
  130.4050  159.4600  112.9720 C   0  0  0  0  0  0  0  0  0  0  0  0
  130.5160  160.1670  111.7860 C   0  0  0  0  0  0  0  0  0  0  0  0
  127.7560  162.1080  110.2150 C   0  0  0  0  0  0  0  0  0  0  0  0
  126.6720  162.7540  110.7870 C   0  0  0  0  0  0  0  0  0  0  0  0
  125.3860  162.3540  110.4680 C   0  0  0  0  0  0  0  0  0  0  0  0
  124.1760  163.0500  111.0830 C   0  0  0  0  0  0  0  0  0  0  0  0
  123.2710  163.5590  111.5330 N   0  0  0  0  0  0  0  0  0  0  0  0
  125.1810  161.3150  109.5830 C   0  0  0  0  0  0  0  0  0  0  0  0
  126.0570  159.6510  108.1440 F   0  0  0  0  0  0  0  0  0  0  0  0
  1  2  4  0  0  0  0
  1 40  4  0  0  0  0
  1 41  1  0  0  0  0
  2  3  1  0  0  0  0
  2 35  4  0  0  0  0
  3  4  1  0  0  0  0
  4  5  1  0  0  0  0
  5  6  4  0  0  0  0
  5 34  4  0  0  0  0
  6  7  4  0  0  0  0
  7  8  1  0  0  0  0
  7 32  4  0  0  0  0
  8 31  1  0  0  0  0
  8  9  1  0  0  0  0
  9 10  1  0  0  0  0
 10 11  1  0  0  0  0
 11 12  1  0  0  0  0
 12 13  1  0  0  0  0
 13 14  4  0  0  0  0
 13 24  4  0  0  0  0
 14 15  4  0  0  0  0
 15 16  4  0  0  0  0
 15 23  4  0  0  0  0
 16 17  4  0  0  0  0
 17 18  4  0  0  0  0
 18 22  4  0  0  0  0
 18 19  1  0  0  0  0
 19 20  4  0  0  0  0
 19 21  4  0  0  0  0
 22 23  4  0  0  0  0
 23 24  4  0  0  0  0
 24 25  1  0  0  0  0
 25 26  1  0  0  0  0
 26 29  1  0  0  0  0
 26 27  1  0  0  0  0
 26 28  1  0  0  0  0
 27 28  1  0  0  0  0
 28 29  1  0  0  0  0
 11 30  1  0  0  0  0
 30 31  1  0  0  0  0
 32 33  4  0  0  0  0
 33 34  4  0  0  0  0
 35 36  4  0  0  0  0
 36 37  4  0  0  0  0
 37 38  1  0  0  0  0
 37 40  4  0  0  0  0
 38 39  3  0  0  0  0
M  END
$$$$
