6YA6
  PyMOL3.1          3D                             0

 20 23  0  0  0  0  0  0  0  0999 V2000
   24.7396   16.9796   59.5677 C   0  0  0  0  0  0  0  0  0  0  0  0
   23.6254   16.1331   59.6798 C   0  0  0  0  0  0  0  0  0  0  0  0
   23.3843   18.7747   58.6075 C   0  0  0  0  0  0  0  0  0  0  0  0
   16.3961   20.6696   58.4937 C   0  0  0  0  0  0  0  0  0  0  0  0
   15.6775   20.1423   57.2240 C   0  0  0  0  0  0  0  0  0  0  0  0
   17.5797   21.0321   58.0495 C   0  0  0  0  0  0  0  0  0  0  0  0
   24.5884   18.2413   59.0713 C   0  0  0  0  0  0  0  0  0  0  0  0
   18.8141   18.7999   57.5942 C   0  0  0  0  0  0  0  0  0  0  0  0
   18.9185   16.6579   58.4670 C   0  0  0  0  0  0  0  0  0  0  0  0
   22.3937   16.6371   59.2188 C   0  0  0  0  0  0  0  0  0  0  0  0
   22.2769   17.9160   58.7145 C   0  0  0  0  0  0  0  0  0  0  0  0
   20.8464   18.0497   58.3447 C   0  0  0  0  0  0  0  0  0  0  0  0
   20.2869   16.8400   58.6906 C   0  0  0  0  0  0  0  0  0  0  0  0
   17.9364   19.8804   56.9628 C   0  0  0  0  0  0  0  0  0  0  0  0
   20.1130   19.0396   57.8015 N   0  0  0  0  0  0  0  0  0  0  0  0
   16.8081   19.3197   56.5403 N   0  0  0  0  0  0  0  0  0  0  0  0
   18.2264   17.6655   57.9208 N   0  0  0  0  0  0  0  0  0  0  0  0
   18.3352   15.4971   58.7850 O   0  0  0  0  0  0  0  0  0  0  0  0
   21.2057   16.0168   59.2006 O   0  0  0  0  0  0  0  0  0  0  0  0
   26.0155   19.2728   58.9791 Cl  0  0  0  0  0  0  0  0  0  0  0  0
  1  2  1  0  0  0  0
  4  5  1  0  0  0  0
  4  6  1  0  0  0  0
  1  7  2  0  0  0  0
  3  7  1  0  0  0  0
  2 10  2  0  0  0  0
  3 11  2  0  0  0  0
 10 11  1  0  0  0  0
 11 12  1  0  0  0  0
  9 13  1  0  0  0  0
 12 13  2  0  0  0  0
  6 14  1  0  0  0  0
  8 14  1  0  0  0  0
  8 15  2  0  0  0  0
 12 15  1  0  0  0  0
  5 16  1  0  0  0  0
 14 16  1  0  0  0  0
  8 17  1  0  0  0  0
  9 17  1  0  0  0  0
  9 18  2  0  0  0  0
 10 19  1  0  0  0  0
 13 19  1  0  0  0  0
  7 20  1  0  0  0  0
M  END
$$$$
