7EKP
  PyMOL3.1          3D                             0

 21 24  0  0  0  0  0  0  0  0999 V2000
   91.3220  125.6710   91.8080 Cl  0  0  0  0  0  0  0  0  0  0  0  0
   92.7840  119.3820   89.7570 O   0  0  0  0  0  0  0  0  0  0  0  0
   93.8000  119.8980   90.0820 C   0  0  0  0  0  0  0  0  0  0  0  0
   93.7880  121.3490   90.5780 C   0  0  0  0  0  0  0  0  0  0  0  0
   94.8750  122.0710   90.9360 C   0  0  0  0  0  0  0  0  0  0  0  0
   94.7070  123.4250   91.3800 C   0  0  0  0  0  0  0  0  0  0  0  0
   93.3340  123.8540   91.3890 C   0  0  0  0  0  0  0  0  0  0  0  0
   93.0210  125.1290   91.7940 C   0  0  0  0  0  0  0  0  0  0  0  0
   94.0370  126.0020   92.1950 C   0  0  0  0  0  0  0  0  0  0  0  0
   95.3780  125.5800   92.1840 C   0  0  0  0  0  0  0  0  0  0  0  0
   95.6980  124.2850   91.7730 C   0  0  0  0  0  0  0  0  0  0  0  0
   92.4180  122.3980   90.7990 S   0  0  0  0  0  0  0  0  0  0  0  0
   95.0430  119.1550   90.0040 N   0  0  0  0  0  0  0  0  0  0  0  0
   95.0250  117.7560   89.5210 C   0  0  0  0  0  0  0  0  0  0  0  0
   95.5080  117.6990   88.0580 C   0  0  0  0  0  0  0  0  0  0  0  0
   95.9230  116.9370   90.3300 C   0  0  0  0  0  0  0  0  0  0  0  0
   95.9180  115.5990   89.8070 C   0  0  0  0  0  0  0  0  0  0  0  0
   96.3350  115.5980   88.3660 C   0  0  0  0  0  0  0  0  0  0  0  0
   96.6260  116.8710   87.9260 N   0  0  0  0  0  0  0  0  0  0  0  0
   97.6990  117.3950   88.6870 C   0  0  0  0  0  0  0  0  0  0  0  0
   97.2750  117.4750   90.2030 C   0  0  0  0  0  0  0  0  0  0  0  0
  2  3  2  0  0  0  0
  3  4  1  0  0  0  0
  3 13  1  0  0  0  0
  4  5  4  0  0  0  0
  4 12  4  0  0  0  0
  5  6  4  0  0  0  0
  6  7  4  0  0  0  0
  6 11  4  0  0  0  0
  7  8  4  0  0  0  0
  7 12  4  0  0  0  0
  1  8  1  0  0  0  0
  8  9  4  0  0  0  0
  9 10  4  0  0  0  0
 10 11  4  0  0  0  0
 13 14  1  0  0  0  0
 14 15  1  0  0  0  0
 14 16  1  0  0  0  0
 15 19  1  0  0  0  0
 16 17  1  0  0  0  0
 16 21  1  0  0  0  0
 17 18  1  0  0  0  0
 18 19  1  0  0  0  0
 19 20  1  0  0  0  0
 20 21  1  0  0  0  0
M  END
$$$$
