7EKP
  PyMOL3.1          3D                             0

 21 24  0  0  0  0  0  0  0  0999 V2000
  143.8980  100.6500   91.8350 Cl  0  0  0  0  0  0  0  0  0  0  0  0
  146.4140  106.5960   89.7850 O   0  0  0  0  0  0  0  0  0  0  0  0
  145.2890  106.7760   90.1100 C   0  0  0  0  0  0  0  0  0  0  0  0
  144.4460  105.5960   90.6060 C   0  0  0  0  0  0  0  0  0  0  0  0
  143.1420  105.6500   90.9630 C   0  0  0  0  0  0  0  0  0  0  0  0
  142.4810  104.4560   91.4080 C   0  0  0  0  0  0  0  0  0  0  0  0
  143.3400  103.3030   91.4170 C   0  0  0  0  0  0  0  0  0  0  0  0
  142.8430  102.0870   91.8210 C   0  0  0  0  0  0  0  0  0  0  0  0
  141.5080  101.9790   92.2220 C   0  0  0  0  0  0  0  0  0  0  0  0
  140.6720  103.1080   92.2120 C   0  0  0  0  0  0  0  0  0  0  0  0
  141.1740  104.3440   91.8010 C   0  0  0  0  0  0  0  0  0  0  0  0
  144.9370  103.9410   90.8270 S   0  0  0  0  0  0  0  0  0  0  0  0
  144.7210  108.1070   90.0320 N   0  0  0  0  0  0  0  0  0  0  0  0
  145.5580  109.2290   89.5490 C   0  0  0  0  0  0  0  0  0  0  0  0
  145.2010  109.5590   88.0860 C   0  0  0  0  0  0  0  0  0  0  0  0
  145.3140  110.4200   90.3580 C   0  0  0  0  0  0  0  0  0  0  0  0
  146.1050  111.4980   89.8350 C   0  0  0  0  0  0  0  0  0  0  0  0
  145.7670  111.7450   88.3940 C   0  0  0  0  0  0  0  0  0  0  0  0
  144.7830  110.8860   87.9540 N   0  0  0  0  0  0  0  0  0  0  0  0
  143.6070  111.0940   88.7160 C   0  0  0  0  0  0  0  0  0  0  0  0
  143.9030  110.7800   90.2320 C   0  0  0  0  0  0  0  0  0  0  0  0
  2  3  2  0  0  0  0
  3  4  1  0  0  0  0
  4  5  2  0  0  0  0
  5  6  1  0  0  0  0
  6  7  2  0  0  0  0
  1  8  1  0  0  0  0
  7  8  1  0  0  0  0
  8  9  2  0  0  0  0
  9 10  1  0  0  0  0
  6 11  1  0  0  0  0
 10 11  2  0  0  0  0
  4 12  1  0  0  0  0
  7 12  1  0  0  0  0
  3 13  1  0  0  0  0
 13 14  1  0  0  0  0
 14 15  1  0  0  0  0
 14 16  1  0  0  0  0
 16 17  1  0  0  0  0
 17 18  1  0  0  0  0
 15 19  1  0  0  0  0
 18 19  1  0  0  0  0
 19 20  1  0  0  0  0
 16 21  1  0  0  0  0
 20 21  1  0  0  0  0
M  END
$$$$
