7SZD
  PyMOL3.1          3D                             0

 23 25  0  0  0  0  0  0  0  0999 V2000
   12.7038  -14.0153   38.0741 C   0  0  0  0  0  0  0  0  0  0  0  0
   13.3076  -15.0164   37.2918 N   0  0  0  0  0  0  0  0  0  0  0  0
   12.1758  -14.1993   39.1441 O   0  0  0  0  0  0  0  0  0  0  0  0
   12.8266  -12.7492   37.3037 C   0  0  0  0  0  0  0  0  0  0  0  0
   13.0941  -17.4962   39.8956 N   0  0  0  0  0  0  0  0  0  0  0  0
   14.0581  -10.0597   33.3405 O   0  0  0  0  0  0  0  0  0  0  0  0
   13.4161  -13.0410   36.0911 C   0  0  0  0  0  0  0  0  0  0  0  0
   13.1995   -8.5376   34.6898 O   0  0  0  0  0  0  0  0  0  0  0  0
   13.6496  -12.0712   35.1436 C   0  0  0  0  0  0  0  0  0  0  0  0
   14.5693  -15.8454   39.4810 O   0  0  0  0  0  0  0  0  0  0  0  0
   13.2857  -10.7631   35.4499 C   0  0  0  0  0  0  0  0  0  0  0  0
   11.8170  -19.3022   40.3246 O   0  0  0  0  0  0  0  0  0  0  0  0
   13.5355   -9.7065   34.4186 C   0  0  0  0  0  0  0  0  0  0  0  0
   14.1632  -15.1270   35.1217 O   0  0  0  0  0  0  0  0  0  0  0  0
   12.6920  -10.4639   36.6765 C   0  0  0  0  0  0  0  0  0  0  0  0
   12.4561  -11.4594   37.6246 C   0  0  0  0  0  0  0  0  0  0  0  0
   13.7036  -14.4959   36.0438 C   0  0  0  0  0  0  0  0  0  0  0  0
   13.1661  -16.4404   37.6632 C   0  0  0  0  0  0  0  0  0  0  0  0
   13.6694  -16.5522   39.0741 C   0  0  0  0  0  0  0  0  0  0  0  0
   14.0791  -17.3807   36.8451 C   0  0  0  0  0  0  0  0  0  0  0  0
   11.7256  -16.9459   37.5437 C   0  0  0  0  0  0  0  0  0  0  0  0
   11.5908  -18.3364   38.1504 C   0  0  0  0  0  0  0  0  0  0  0  0
   12.1535  -18.4385   39.5330 C   0  0  0  0  0  0  0  0  0  0  0  0
  1  2  1  0  0  0  0
  1  3  2  0  0  0  0
  1  4  1  0  0  0  0
  4  7  2  0  0  0  0
  7  9  1  0  0  0  0
  9 11  2  0  0  0  0
  6 13  2  0  0  0  0
  8 13  1  0  0  0  0
 11 13  1  0  0  0  0
 11 15  1  0  0  0  0
  4 16  1  0  0  0  0
 15 16  2  0  0  0  0
  2 17  1  0  0  0  0
  7 17  1  0  0  0  0
 14 17  2  0  0  0  0
  2 18  1  0  0  0  0
  5 19  1  0  0  0  0
 10 19  2  0  0  0  0
 18 19  1  0  0  0  0
 18 20  1  0  0  0  0
 18 21  1  0  0  0  0
 21 22  1  0  0  0  0
  5 23  1  0  0  0  0
 12 23  2  0  0  0  0
 22 23  1  0  0  0  0
M  END
$$$$
