7EZP
  PyMOL3.1          3D                             0

 24 25  0  0  0  0  0  0  0  0999 V2000
   -0.8620   -4.3750    0.7830 C   0  0  0  0  0  0  0  0  0  0  0  0
   -4.7560   -3.8030   -0.2360 N   0  0  0  0  0  0  0  0  0  0  0  0
   -6.4790   -4.7800   -3.0100 O   0  0  0  0  0  0  0  0  0  0  0  0
   -1.7340   -4.1090    1.8400 C   0  0  0  0  0  0  0  0  0  0  0  0
   -3.9680   -3.6350    2.7200 N   0  0  0  0  0  0  0  0  0  0  0  0
   -6.4080   -2.6690   -2.5210 O   0  0  0  0  0  0  0  0  0  0  0  0
   -3.0810   -3.8960    1.6000 C   0  0  0  0  0  0  0  0  0  0  0  0
   -1.9530   -7.5090   -3.1930 O   0  0  0  0  0  0  0  0  0  0  0  0
   -3.5460   -3.9550    0.2830 C   0  0  0  0  0  0  0  0  0  0  0  0
   -1.9640   -7.0730   -5.3250 O   0  0  0  0  0  0  0  0  0  0  0  0
   -2.6770   -4.2210   -0.7480 C   0  0  0  0  0  0  0  0  0  0  0  0
   -5.3580   -3.8190    2.6440 O   0  0  0  0  0  0  0  0  0  0  0  0
   -1.3320   -4.4320   -0.5060 C   0  0  0  0  0  0  0  0  0  0  0  0
   -3.4420   -3.2100    3.9380 O   0  0  0  0  0  0  0  0  0  0  0  0
   -4.7270   -3.9590   -1.5370 C   0  0  0  0  0  0  0  0  0  0  0  0
   -3.4230   -4.2160   -1.9220 C   0  0  0  0  0  0  0  0  0  0  0  0
   -5.9460   -3.8210   -2.4120 C   0  0  0  0  0  0  0  0  0  0  0  0
   -2.8580   -4.4720   -3.3100 C   0  0  0  0  0  0  0  0  0  0  0  0
   -3.4010   -5.7470   -3.9570 C   0  0  0  0  0  0  0  0  0  0  0  0
   -2.3690   -6.8370   -4.1680 C   0  0  0  0  0  0  0  0  0  0  0  0
    0.6250   -4.5940    0.9960 C   0  0  0  0  0  0  0  0  0  0  0  0
    0.9440   -5.6060    2.0810 C   0  0  0  0  0  0  0  0  0  0  0  0
    0.9130   -7.0400    1.5420 C   0  0  0  0  0  0  0  0  0  0  0  0
    2.3240   -5.2610    2.6330 C   0  0  0  0  0  0  0  0  0  0  0  0
  1  4  1  0  0  0  0
  4  7  2  0  0  0  0
  5  7  1  0  0  0  0
  2  9  1  0  0  0  0
  7  9  1  0  0  0  0
  9 11  2  0  0  0  0
  5 12  1  0  0  0  0
  1 13  2  0  0  0  0
 11 13  1  0  0  0  0
  5 14  2  0  0  0  0
  2 15  1  0  0  0  0
 11 16  1  0  0  0  0
 15 16  2  0  0  0  0
  3 17  2  0  0  0  0
  6 17  1  0  0  0  0
 15 17  1  0  0  0  0
 16 18  1  0  0  0  0
 18 19  1  0  0  0  0
  8 20  1  0  0  0  0
 10 20  2  0  0  0  0
 19 20  1  0  0  0  0
  1 21  1  0  0  0  0
 21 22  1  0  0  0  0
 22 23  1  0  0  0  0
 22 24  1  0  0  0  0
M  END
$$$$
