7EZP
  PyMOL3.1          3D                             0

 24 25  0  0  0  0  0  0  0  0999 V2000
  -17.5640    8.1640   -6.0330 C   0  0  0  0  0  0  0  0  0  0  0  0
  -14.0850    7.6950   -3.9740 N   0  0  0  0  0  0  0  0  0  0  0  0
  -11.0040    7.2320   -4.9790 O   0  0  0  0  0  0  0  0  0  0  0  0
  -17.6940    7.6190   -4.7740 C   0  0  0  0  0  0  0  0  0  0  0  0
  -16.7490    6.8660   -2.6590 N   0  0  0  0  0  0  0  0  0  0  0  0
  -11.1510    9.2270   -4.1430 O   0  0  0  0  0  0  0  0  0  0  0  0
  -16.5750    7.4250   -3.9920 C   0  0  0  0  0  0  0  0  0  0  0  0
  -15.5660   11.3220   -8.5180 O   0  0  0  0  0  0  0  0  0  0  0  0
  -15.3090    7.7680   -4.4960 C   0  0  0  0  0  0  0  0  0  0  0  0
  -14.2890   10.0320   -9.7000 O   0  0  0  0  0  0  0  0  0  0  0  0
  -15.1910    8.3000   -5.7500 C   0  0  0  0  0  0  0  0  0  0  0  0
  -15.6600    6.6650   -1.8190 O   0  0  0  0  0  0  0  0  0  0  0  0
  -16.3240    8.4850   -6.5220 C   0  0  0  0  0  0  0  0  0  0  0  0
  -18.0070    6.5250   -2.1870 O   0  0  0  0  0  0  0  0  0  0  0  0
  -13.1890    8.1460   -4.8160 C   0  0  0  0  0  0  0  0  0  0  0  0
  -13.8260    8.5450   -5.9620 C   0  0  0  0  0  0  0  0  0  0  0  0
  -11.6930    8.2130   -4.6190 C   0  0  0  0  0  0  0  0  0  0  0  0
  -13.1230    9.1250   -7.1760 C   0  0  0  0  0  0  0  0  0  0  0  0
  -13.5190   10.5640   -7.4600 C   0  0  0  0  0  0  0  0  0  0  0  0
  -14.5110   10.6460   -8.6250 C   0  0  0  0  0  0  0  0  0  0  0  0
  -18.7540    8.3860   -6.9400 C   0  0  0  0  0  0  0  0  0  0  0  0
  -19.7260    9.4430   -6.4770 C   0  0  0  0  0  0  0  0  0  0  0  0
  -19.2330   10.8410   -6.7840 C   0  0  0  0  0  0  0  0  0  0  0  0
  -21.0400    9.1650   -7.1980 C   0  0  0  0  0  0  0  0  0  0  0  0
  1  4  1  0  0  0  0
  4  7  2  0  0  0  0
  5  7  1  0  0  0  0
  2  9  1  0  0  0  0
  7  9  1  0  0  0  0
  9 11  2  0  0  0  0
  5 12  1  0  0  0  0
  1 13  2  0  0  0  0
 11 13  1  0  0  0  0
  5 14  2  0  0  0  0
  2 15  1  0  0  0  0
 11 16  1  0  0  0  0
 15 16  2  0  0  0  0
  3 17  2  0  0  0  0
  6 17  1  0  0  0  0
 15 17  1  0  0  0  0
 16 18  1  0  0  0  0
 18 19  1  0  0  0  0
  8 20  1  0  0  0  0
 10 20  2  0  0  0  0
 19 20  1  0  0  0  0
  1 21  1  0  0  0  0
 21 22  1  0  0  0  0
 22 23  1  0  0  0  0
 22 24  1  0  0  0  0
M  END
$$$$
