7EZP
  PyMOL3.1          3D                             0

 24 25  0  0  0  0  0  0  0  0999 V2000
  -40.6110    8.3050   48.8510 C   0  0  0  0  0  0  0  0  0  0  0  0
  -39.2470    4.4630   48.8520 N   0  0  0  0  0  0  0  0  0  0  0  0
  -40.7830    1.6500   50.1840 O   0  0  0  0  0  0  0  0  0  0  0  0
  -39.6050    8.0120   47.9520 C   0  0  0  0  0  0  0  0  0  0  0  0
  -38.0490    6.4400   46.9130 N   0  0  0  0  0  0  0  0  0  0  0  0
  -38.6630    2.0640   50.4000 O   0  0  0  0  0  0  0  0  0  0  0  0
  -39.0850    6.7430   47.8800 C   0  0  0  0  0  0  0  0  0  0  0  0
  -44.9620    5.4090   51.6380 O   0  0  0  0  0  0  0  0  0  0  0  0
  -39.5660    5.7460   48.7220 C   0  0  0  0  0  0  0  0  0  0  0  0
  -44.4380    5.4820   49.5150 O   0  0  0  0  0  0  0  0  0  0  0  0
  -40.5570    6.0390   49.6140 C   0  0  0  0  0  0  0  0  0  0  0  0
  -37.9240    5.1390   46.4210 O   0  0  0  0  0  0  0  0  0  0  0  0
  -41.0860    7.3200   49.6810 C   0  0  0  0  0  0  0  0  0  0  0  0
  -37.1940    7.4340   46.4410 O   0  0  0  0  0  0  0  0  0  0  0  0
  -39.9760    3.8950   49.7700 C   0  0  0  0  0  0  0  0  0  0  0  0
  -40.8250    4.8510   50.2960 C   0  0  0  0  0  0  0  0  0  0  0  0
  -39.8180    2.4480   50.1420 C   0  0  0  0  0  0  0  0  0  0  0  0
  -41.8540    4.7130   51.3970 C   0  0  0  0  0  0  0  0  0  0  0  0
  -43.1240    4.0400   50.9170 C   0  0  0  0  0  0  0  0  0  0  0  0
  -44.2440    5.0340   50.6740 C   0  0  0  0  0  0  0  0  0  0  0  0
  -41.2180    9.6990   48.9300 C   0  0  0  0  0  0  0  0  0  0  0  0
  -40.1830   10.8220   48.9760 C   0  0  0  0  0  0  0  0  0  0  0  0
  -40.8870   12.1220   48.6410 C   0  0  0  0  0  0  0  0  0  0  0  0
  -39.5070   10.9360   50.3510 C   0  0  0  0  0  0  0  0  0  0  0  0
  1  4  1  0  0  0  0
  4  7  2  0  0  0  0
  5  7  1  0  0  0  0
  2  9  1  0  0  0  0
  7  9  1  0  0  0  0
  9 11  2  0  0  0  0
  5 12  1  0  0  0  0
  1 13  2  0  0  0  0
 11 13  1  0  0  0  0
  5 14  2  0  0  0  0
  2 15  1  0  0  0  0
 11 16  1  0  0  0  0
 15 16  2  0  0  0  0
  3 17  2  0  0  0  0
  6 17  1  0  0  0  0
 15 17  1  0  0  0  0
 16 18  1  0  0  0  0
 18 19  1  0  0  0  0
  8 20  1  0  0  0  0
 10 20  2  0  0  0  0
 19 20  1  0  0  0  0
  1 21  1  0  0  0  0
 21 22  1  0  0  0  0
 22 23  1  0  0  0  0
 22 24  1  0  0  0  0
M  END
$$$$
