6YSN
  PyMOL3.1          3D                             0

144156  0  0  0  0  0  0  0  0999 V2000
  112.5650  133.4990  164.9020 Cl  0  0  0  0  0  0  0  0  0  0  0  0
  119.0910  136.3440  165.6790 O   0  0  0  0  0  0  0  0  0  0  0  0
  119.0560  137.2930  164.6440 C   0  0  0  0  0  0  0  0  0  0  0  0
  118.7840  136.8890  163.2870 C   0  0  0  0  0  0  0  0  0  0  0  0
  118.7690  137.8340  162.3510 C   0  0  0  0  0  0  0  0  0  0  0  0
  118.4940  137.2130  161.1610 N   0  0  0  0  0  0  0  0  0  0  0  0
  118.3680  135.9270  161.3870 C   0  0  0  0  0  0  0  0  0  0  0  0
  118.0700  134.9280  160.4230 O   0  0  0  0  0  0  0  0  0  0  0  0
  118.7920  134.9940  159.2330 C   0  0  0  0  0  0  0  0  0  0  0  0
  118.3150  134.2470  158.1430 C   0  0  0  0  0  0  0  0  0  0  0  0
  118.9970  134.2640  156.9060 C   0  0  0  0  0  0  0  0  0  0  0  0
  120.1370  135.0120  156.7550 C   0  0  0  0  0  0  0  0  0  0  0  0
  120.6340  135.7580  157.8300 C   0  0  0  0  0  0  0  0  0  0  0  0
  121.8150  136.5280  157.6620 O   0  0  0  0  0  0  0  0  0  0  0  0
  123.0450  135.8110  157.7490 C   0  0  0  0  0  0  0  0  0  0  0  0
  119.9480  135.7390  159.0730 C   0  0  0  0  0  0  0  0  0  0  0  0
  118.5270  135.6880  162.6540 N   0  0  0  0  0  0  0  0  0  0  0  0
  118.4370  134.3620  163.2890 C   0  0  0  0  0  0  0  0  0  0  0  0
  116.9800  134.1460  163.7110 C   0  0  0  0  0  0  0  0  0  0  0  0
  116.0130  133.6980  162.7390 C   0  0  0  0  0  0  0  0  0  0  0  0
  114.6770  133.5060  163.1200 C   0  0  0  0  0  0  0  0  0  0  0  0
  114.2890  133.7490  164.4150 C   0  0  0  0  0  0  0  0  0  0  0  0
  115.2420  134.1940  165.3730 C   0  0  0  0  0  0  0  0  0  0  0  0
  116.5980  134.3890  164.9820 C   0  0  0  0  0  0  0  0  0  0  0  0
  118.9980  139.1230  162.6700 N   0  0  0  0  0  0  0  0  0  0  0  0
  118.9770  140.1630  161.6090 C   0  0  0  0  0  0  0  0  0  0  0  0
  119.2510  139.4730  163.9580 C   0  0  0  0  0  0  0  0  0  0  0  0
  119.2740  138.5810  164.9000 N   0  0  0  0  0  0  0  0  0  0  0  0
  119.5670  139.0360  166.2790 C   0  0  0  0  0  0  0  0  0  0  0  0
  118.3350  138.9080  167.2450 C   0  0  0  0  0  0  0  0  0  0  0  0
  118.7710  138.3070  168.6300 C   0  0  0  0  0  0  0  0  0  0  0  0
  119.2240  139.4030  169.5000 O   0  0  0  0  0  0  0  0  0  0  0  0
  119.4510  140.6010  164.2210 O   0  0  0  0  0  0  0  0  0  0  0  0
  123.1260  135.1690  158.9780 F   0  0  0  0  0  0  0  0  0  0  0  0
  123.1420  134.8480  156.6940 F   0  0  0  0  0  0  0  0  0  0  0  0
  124.0520  136.6370  157.6390 F   0  0  0  0  0  0  0  0  0  0  0  0
  140.4210  112.5660  164.9000 Cl  0  0  0  0  0  0  0  0  0  0  0  0
  137.5760  119.0910  165.6790 O   0  0  0  0  0  0  0  0  0  0  0  0
  136.6270  119.0560  164.6440 C   0  0  0  0  0  0  0  0  0  0  0  0
  137.0320  118.7850  163.2870 C   0  0  0  0  0  0  0  0  0  0  0  0
  136.0860  118.7710  162.3510 C   0  0  0  0  0  0  0  0  0  0  0  0
  136.7070  118.4950  161.1620 N   0  0  0  0  0  0  0  0  0  0  0  0
  137.9930  118.3690  161.3880 C   0  0  0  0  0  0  0  0  0  0  0  0
  138.9920  118.0710  160.4230 O   0  0  0  0  0  0  0  0  0  0  0  0
  138.9270  118.7920  159.2320 C   0  0  0  0  0  0  0  0  0  0  0  0
  139.6740  118.3150  158.1430 C   0  0  0  0  0  0  0  0  0  0  0  0
  139.6580  118.9960  156.9050 C   0  0  0  0  0  0  0  0  0  0  0  0
  138.9090  120.1360  156.7540 C   0  0  0  0  0  0  0  0  0  0  0  0
  138.1630  120.6330  157.8270 C   0  0  0  0  0  0  0  0  0  0  0  0
  137.3920  121.8130  157.6570 O   0  0  0  0  0  0  0  0  0  0  0  0
  138.1070  123.0450  157.7500 C   0  0  0  0  0  0  0  0  0  0  0  0
  138.1820  119.9480  159.0710 C   0  0  0  0  0  0  0  0  0  0  0  0
  138.2330  118.5280  162.6540 N   0  0  0  0  0  0  0  0  0  0  0  0
  139.5580  118.4380  163.2900 C   0  0  0  0  0  0  0  0  0  0  0  0
  139.7740  116.9800  163.7100 C   0  0  0  0  0  0  0  0  0  0  0  0
  140.2220  116.0140  162.7380 C   0  0  0  0  0  0  0  0  0  0  0  0
  140.4130  114.6780  163.1200 C   0  0  0  0  0  0  0  0  0  0  0  0
  140.1710  114.2910  164.4150 C   0  0  0  0  0  0  0  0  0  0  0  0
  139.7260  115.2430  165.3720 C   0  0  0  0  0  0  0  0  0  0  0  0
  139.5300  116.5990  164.9810 C   0  0  0  0  0  0  0  0  0  0  0  0
  134.7980  118.9980  162.6710 N   0  0  0  0  0  0  0  0  0  0  0  0
  133.7580  118.9770  161.6100 C   0  0  0  0  0  0  0  0  0  0  0  0
  134.4460  119.2510  163.9580 C   0  0  0  0  0  0  0  0  0  0  0  0
  135.3390  119.2730  164.8980 N   0  0  0  0  0  0  0  0  0  0  0  0
  134.8840  119.5660  166.2780 C   0  0  0  0  0  0  0  0  0  0  0  0
  135.0100  118.3360  167.2440 C   0  0  0  0  0  0  0  0  0  0  0  0
  135.6140  118.7710  168.6310 C   0  0  0  0  0  0  0  0  0  0  0  0
  134.5200  119.2260  169.4990 O   0  0  0  0  0  0  0  0  0  0  0  0
  133.3190  119.4500  164.2210 O   0  0  0  0  0  0  0  0  0  0  0  0
  138.7280  123.1330  158.9880 F   0  0  0  0  0  0  0  0  0  0  0  0
  139.0870  123.1370  156.7100 F   0  0  0  0  0  0  0  0  0  0  0  0
  137.2820  124.0500  157.6200 F   0  0  0  0  0  0  0  0  0  0  0  0
  161.3560  140.4210  164.9010 Cl  0  0  0  0  0  0  0  0  0  0  0  0
  154.8290  137.5770  165.6790 O   0  0  0  0  0  0  0  0  0  0  0  0
  154.8650  136.6280  164.6450 C   0  0  0  0  0  0  0  0  0  0  0  0
  155.1360  137.0320  163.2880 C   0  0  0  0  0  0  0  0  0  0  0  0
  155.1500  136.0870  162.3510 C   0  0  0  0  0  0  0  0  0  0  0  0
  155.4270  136.7070  161.1630 N   0  0  0  0  0  0  0  0  0  0  0  0
  155.5530  137.9920  161.3880 C   0  0  0  0  0  0  0  0  0  0  0  0
  155.8510  138.9910  160.4230 O   0  0  0  0  0  0  0  0  0  0  0  0
  155.1290  138.9270  159.2330 C   0  0  0  0  0  0  0  0  0  0  0  0
  155.6050  139.6740  158.1440 C   0  0  0  0  0  0  0  0  0  0  0  0
  154.9220  139.6580  156.9060 C   0  0  0  0  0  0  0  0  0  0  0  0
  153.7830  138.9100  156.7560 C   0  0  0  0  0  0  0  0  0  0  0  0
  153.2860  138.1630  157.8300 C   0  0  0  0  0  0  0  0  0  0  0  0
  152.1060  137.3920  157.6610 O   0  0  0  0  0  0  0  0  0  0  0  0
  150.8750  138.1070  157.7500 C   0  0  0  0  0  0  0  0  0  0  0  0
  153.9720  138.1810  159.0730 C   0  0  0  0  0  0  0  0  0  0  0  0
  155.3930  138.2330  162.6550 N   0  0  0  0  0  0  0  0  0  0  0  0
  155.4830  139.5580  163.2900 C   0  0  0  0  0  0  0  0  0  0  0  0
  156.9410  139.7740  163.7100 C   0  0  0  0  0  0  0  0  0  0  0  0
  157.9070  140.2220  162.7390 C   0  0  0  0  0  0  0  0  0  0  0  0
  159.2430  140.4130  163.1200 C   0  0  0  0  0  0  0  0  0  0  0  0
  159.6310  140.1710  164.4150 C   0  0  0  0  0  0  0  0  0  0  0  0
  158.6790  139.7260  165.3730 C   0  0  0  0  0  0  0  0  0  0  0  0
  157.3220  139.5310  164.9820 C   0  0  0  0  0  0  0  0  0  0  0  0
  154.9230  134.7970  162.6710 N   0  0  0  0  0  0  0  0  0  0  0  0
  154.9440  133.7580  161.6110 C   0  0  0  0  0  0  0  0  0  0  0  0
  154.6690  134.4470  163.9600 C   0  0  0  0  0  0  0  0  0  0  0  0
  154.6470  135.3400  164.9000 N   0  0  0  0  0  0  0  0  0  0  0  0
  154.3530  134.8870  166.2790 C   0  0  0  0  0  0  0  0  0  0  0  0
  155.5840  135.0130  167.2470 C   0  0  0  0  0  0  0  0  0  0  0  0
  155.1500  135.6120  168.6350 C   0  0  0  0  0  0  0  0  0  0  0  0
  154.6930  134.5160  169.4990 O   0  0  0  0  0  0  0  0  0  0  0  0
  154.4700  133.3200  164.2240 O   0  0  0  0  0  0  0  0  0  0  0  0
  150.7910  138.7430  158.9820 F   0  0  0  0  0  0  0  0  0  0  0  0
  150.7800  139.0760  156.7000 F   0  0  0  0  0  0  0  0  0  0  0  0
  149.8700  137.2810  157.6330 F   0  0  0  0  0  0  0  0  0  0  0  0
  133.4980  161.3550  164.9010 Cl  0  0  0  0  0  0  0  0  0  0  0  0
  136.3440  154.8290  165.6780 O   0  0  0  0  0  0  0  0  0  0  0  0
  137.2930  154.8640  164.6440 C   0  0  0  0  0  0  0  0  0  0  0  0
  136.8880  155.1350  163.2870 C   0  0  0  0  0  0  0  0  0  0  0  0
  137.8340  155.1490  162.3500 C   0  0  0  0  0  0  0  0  0  0  0  0
  137.2130  155.4260  161.1620 N   0  0  0  0  0  0  0  0  0  0  0  0
  135.9280  155.5520  161.3880 C   0  0  0  0  0  0  0  0  0  0  0  0
  134.9270  155.8500  160.4240 O   0  0  0  0  0  0  0  0  0  0  0  0
  134.9930  155.1280  159.2330 C   0  0  0  0  0  0  0  0  0  0  0  0
  134.2460  155.6050  158.1450 C   0  0  0  0  0  0  0  0  0  0  0  0
  134.2620  154.9240  156.9060 C   0  0  0  0  0  0  0  0  0  0  0  0
  135.0100  153.7840  156.7540 C   0  0  0  0  0  0  0  0  0  0  0  0
  135.7570  153.2870  157.8280 C   0  0  0  0  0  0  0  0  0  0  0  0
  136.5280  152.1070  157.6590 O   0  0  0  0  0  0  0  0  0  0  0  0
  135.8130  150.8760  157.7500 C   0  0  0  0  0  0  0  0  0  0  0  0
  135.7380  153.9720  159.0720 C   0  0  0  0  0  0  0  0  0  0  0  0
  135.6880  155.3920  162.6550 N   0  0  0  0  0  0  0  0  0  0  0  0
  134.3630  155.4830  163.2900 C   0  0  0  0  0  0  0  0  0  0  0  0
  134.1460  156.9400  163.7100 C   0  0  0  0  0  0  0  0  0  0  0  0
  133.6980  157.9060  162.7390 C   0  0  0  0  0  0  0  0  0  0  0  0
  133.5070  159.2420  163.1210 C   0  0  0  0  0  0  0  0  0  0  0  0
  133.7490  159.6300  164.4160 C   0  0  0  0  0  0  0  0  0  0  0  0
  134.1940  158.6770  165.3730 C   0  0  0  0  0  0  0  0  0  0  0  0
  134.3890  157.3210  164.9810 C   0  0  0  0  0  0  0  0  0  0  0  0
  139.1230  154.9220  162.6700 N   0  0  0  0  0  0  0  0  0  0  0  0
  140.1630  154.9420  161.6100 C   0  0  0  0  0  0  0  0  0  0  0  0
  139.4740  154.6680  163.9580 C   0  0  0  0  0  0  0  0  0  0  0  0
  138.5810  154.6460  164.8990 N   0  0  0  0  0  0  0  0  0  0  0  0
  139.0350  154.3540  166.2790 C   0  0  0  0  0  0  0  0  0  0  0  0
  138.9090  155.5850  167.2460 C   0  0  0  0  0  0  0  0  0  0  0  0
  138.3050  155.1500  168.6310 C   0  0  0  0  0  0  0  0  0  0  0  0
  139.3990  154.6910  169.4980 O   0  0  0  0  0  0  0  0  0  0  0  0
  140.6010  154.4680  164.2220 O   0  0  0  0  0  0  0  0  0  0  0  0
  135.1860  150.7890  158.9860 F   0  0  0  0  0  0  0  0  0  0  0  0
  134.8370  150.7830  156.7070 F   0  0  0  0  0  0  0  0  0  0  0  0
  136.6390  149.8710  157.6250 F   0  0  0  0  0  0  0  0  0  0  0  0
  2  3  1  0  0  0  0
  3  4  4  0  0  0  0
  3 28  4  0  0  0  0
  4  5  4  0  0  0  0
  4 17  4  0  0  0  0
  5  6  4  0  0  0  0
  5 25  4  0  0  0  0
  6  7  4  0  0  0  0
  7  8  1  0  0  0  0
  7 17  4  0  0  0  0
  8  9  1  0  0  0  0
  9 10  4  0  0  0  0
  9 16  4  0  0  0  0
 10 11  4  0  0  0  0
 11 12  4  0  0  0  0
 12 13  4  0  0  0  0
 13 14  1  0  0  0  0
 13 16  4  0  0  0  0
 14 15  1  0  0  0  0
 15 34  1  0  0  0  0
 15 35  1  0  0  0  0
 15 36  1  0  0  0  0
 17 18  1  0  0  0  0
 18 19  1  0  0  0  0
 19 20  4  0  0  0  0
 19 24  4  0  0  0  0
 20 21  4  0  0  0  0
 21 22  4  0  0  0  0
  1 22  1  0  0  0  0
 22 23  4  0  0  0  0
 23 24  4  0  0  0  0
 25 26  1  0  0  0  0
 25 27  4  0  0  0  0
 27 28  4  0  0  0  0
 27 33  2  0  0  0  0
 28 29  1  0  0  0  0
 29 30  1  0  0  0  0
 30 31  1  0  0  0  0
 31 32  1  0  0  0  0
 38 39  1  0  0  0  0
 39 40  4  0  0  0  0
 39 64  4  0  0  0  0
 40 41  4  0  0  0  0
 40 53  4  0  0  0  0
 41 42  4  0  0  0  0
 41 61  4  0  0  0  0
 42 43  4  0  0  0  0
 43 44  1  0  0  0  0
 43 53  4  0  0  0  0
 44 45  1  0  0  0  0
 45 46  4  0  0  0  0
 45 52  4  0  0  0  0
 46 47  4  0  0  0  0
 47 48  4  0  0  0  0
 48 49  4  0  0  0  0
 49 50  1  0  0  0  0
 49 52  4  0  0  0  0
 50 51  1  0  0  0  0
 51 70  1  0  0  0  0
 51 71  1  0  0  0  0
 51 72  1  0  0  0  0
 53 54  1  0  0  0  0
 54 55  1  0  0  0  0
 55 56  4  0  0  0  0
 55 60  4  0  0  0  0
 56 57  4  0  0  0  0
 57 58  4  0  0  0  0
 37 58  1  0  0  0  0
 58 59  4  0  0  0  0
 59 60  4  0  0  0  0
 61 62  1  0  0  0  0
 61 63  4  0  0  0  0
 63 64  4  0  0  0  0
 63 69  2  0  0  0  0
 64 65  1  0  0  0  0
 65 66  1  0  0  0  0
 66 67  1  0  0  0  0
 67 68  1  0  0  0  0
 74 75  1  0  0  0  0
 75 76  4  0  0  0  0
 75100  4  0  0  0  0
 76 77  4  0  0  0  0
 76 89  4  0  0  0  0
 77 78  4  0  0  0  0
 77 97  4  0  0  0  0
 78 79  4  0  0  0  0
 79 80  1  0  0  0  0
 79 89  4  0  0  0  0
 80 81  1  0  0  0  0
 81 82  4  0  0  0  0
 81 88  4  0  0  0  0
 82 83  4  0  0  0  0
 83 84  4  0  0  0  0
 84 85  4  0  0  0  0
 85 86  1  0  0  0  0
 85 88  4  0  0  0  0
 86 87  1  0  0  0  0
 87106  1  0  0  0  0
 87107  1  0  0  0  0
 87108  1  0  0  0  0
 89 90  1  0  0  0  0
 90 91  1  0  0  0  0
 91 92  4  0  0  0  0
 91 96  4  0  0  0  0
 92 93  4  0  0  0  0
 93 94  4  0  0  0  0
 73 94  1  0  0  0  0
 94 95  4  0  0  0  0
 95 96  4  0  0  0  0
 97 98  1  0  0  0  0
 97 99  4  0  0  0  0
 99100  4  0  0  0  0
 99105  2  0  0  0  0
100101  1  0  0  0  0
101102  1  0  0  0  0
102103  1  0  0  0  0
103104  1  0  0  0  0
110111  1  0  0  0  0
111112  4  0  0  0  0
111136  4  0  0  0  0
112113  4  0  0  0  0
112125  4  0  0  0  0
113114  4  0  0  0  0
113133  4  0  0  0  0
114115  4  0  0  0  0
115116  1  0  0  0  0
115125  4  0  0  0  0
116117  1  0  0  0  0
117118  4  0  0  0  0
117124  4  0  0  0  0
118119  4  0  0  0  0
119120  4  0  0  0  0
120121  4  0  0  0  0
121122  1  0  0  0  0
121124  4  0  0  0  0
122123  1  0  0  0  0
123142  1  0  0  0  0
123143  1  0  0  0  0
123144  1  0  0  0  0
125126  1  0  0  0  0
126127  1  0  0  0  0
127128  4  0  0  0  0
127132  4  0  0  0  0
128129  4  0  0  0  0
129130  4  0  0  0  0
109130  1  0  0  0  0
130131  4  0  0  0  0
131132  4  0  0  0  0
133134  1  0  0  0  0
133135  4  0  0  0  0
135136  4  0  0  0  0
135141  2  0  0  0  0
136137  1  0  0  0  0
137138  1  0  0  0  0
138139  1  0  0  0  0
139140  1  0  0  0  0
M  END
$$$$
