8R4X
  PyMOL3.1          3D                             0

 28 31  0  0  0  0  0  0  0  0999 V2000
  -60.0440   -6.5480   58.5470 Cl  0  0  0  0  0  0  0  0  0  0  0  0
  -48.5390   -4.4800   67.5450 Cl  0  0  0  0  0  0  0  0  0  0  0  0
  -49.0850  -10.0060   59.8300 C   0  0  0  0  0  0  0  0  0  0  0  0
  -49.3650   -8.4930   60.0480 C   0  0  0  0  0  0  0  0  0  0  0  0
  -48.8510   -8.0390   61.2210 O   0  0  0  0  0  0  0  0  0  0  0  0
  -49.0080   -6.6500   61.2780 C   0  0  0  0  0  0  0  0  0  0  0  0
  -50.5580   -6.3050   61.2300 C   0  0  0  0  0  0  0  0  0  0  0  0
  -51.2300   -6.8560   60.1280 N   0  0  0  0  0  0  0  0  0  0  0  0
  -50.9060   -8.2220   59.9490 C   0  0  0  0  0  0  0  0  0  0  0  0
  -52.6290   -6.5750   60.1190 C   0  0  0  0  0  0  0  0  0  0  0  0
  -52.9300   -5.1050   60.1720 C   0  0  0  0  0  0  0  0  0  0  0  0
  -54.4660   -4.8030   60.1040 C   0  0  0  0  0  0  0  0  0  0  0  0
  -55.0720   -5.3880   58.9210 N   0  0  0  0  0  0  0  0  0  0  0  0
  -54.7670   -6.8370   58.7800 C   0  0  0  0  0  0  0  0  0  0  0  0
  -53.2160   -7.0260   58.8050 C   0  0  0  0  0  0  0  0  0  0  0  0
  -56.4470   -4.9950   58.7890 C   0  0  0  0  0  0  0  0  0  0  0  0
  -56.6740   -3.6970   58.7310 N   0  0  0  0  0  0  0  0  0  0  0  0
  -57.9300   -3.1560   58.6140 C   0  0  0  0  0  0  0  0  0  0  0  0
  -58.9550   -4.0720   58.5230 C   0  0  0  0  0  0  0  0  0  0  0  0
  -58.6870   -5.4380   58.6070 C   0  0  0  0  0  0  0  0  0  0  0  0
  -57.4500   -5.9780   58.7620 C   0  0  0  0  0  0  0  0  0  0  0  0
  -51.1930   -6.8260   62.5910 C   0  0  0  0  0  0  0  0  0  0  0  0
  -50.5360   -6.2690   63.8990 C   0  0  0  0  0  0  0  0  0  0  0  0
  -50.5800   -4.8990   64.1420 C   0  0  0  0  0  0  0  0  0  0  0  0
  -49.9360   -4.3940   65.2720 C   0  0  0  0  0  0  0  0  0  0  0  0
  -49.3080   -5.2310   66.1500 C   0  0  0  0  0  0  0  0  0  0  0  0
  -49.2470   -6.6190   65.9350 C   0  0  0  0  0  0  0  0  0  0  0  0
  -49.8710   -7.1140   64.7690 C   0  0  0  0  0  0  0  0  0  0  0  0
  3  4  1  0  0  0  0
  4  5  1  0  0  0  0
  5  6  1  0  0  0  0
  6  7  1  0  0  0  0
  7  8  1  0  0  0  0
  4  9  1  0  0  0  0
  8  9  1  0  0  0  0
  8 10  1  0  0  0  0
 10 11  1  0  0  0  0
 11 12  1  0  0  0  0
 12 13  1  0  0  0  0
 13 14  1  0  0  0  0
 10 15  1  0  0  0  0
 14 15  1  0  0  0  0
 13 16  1  0  0  0  0
 16 17  1  0  0  0  0
 17 18  2  0  0  0  0
 18 19  1  0  0  0  0
  1 20  1  0  0  0  0
 19 20  2  0  0  0  0
 16 21  2  0  0  0  0
 20 21  1  0  0  0  0
  7 22  1  0  0  0  0
 22 23  1  0  0  0  0
 23 24  1  0  0  0  0
 24 25  2  0  0  0  0
  2 26  1  0  0  0  0
 25 26  1  0  0  0  0
 26 27  2  0  0  0  0
 23 28  2  0  0  0  0
 27 28  1  0  0  0  0
M  END
$$$$
