8R4X
  PyMOL3.1          3D                             0

 28 31  0  0  0  0  0  0  0  0999 V2000
  -23.3970   24.3660   30.7110 Cl  0  0  0  0  0  0  0  0  0  0  0  0
  -34.8590   33.1200   32.8530 Cl  0  0  0  0  0  0  0  0  0  0  0  0
  -34.0200   25.9990   26.7400 C   0  0  0  0  0  0  0  0  0  0  0  0
  -33.9250   25.9030   28.2830 C   0  0  0  0  0  0  0  0  0  0  0  0
  -34.4710   27.0580   28.8190 O   0  0  0  0  0  0  0  0  0  0  0  0
  -34.4180   26.9610   30.2220 C   0  0  0  0  0  0  0  0  0  0  0  0
  -32.9000   26.9390   30.6070 C   0  0  0  0  0  0  0  0  0  0  0  0
  -32.2160   25.8310   30.0580 N   0  0  0  0  0  0  0  0  0  0  0  0
  -32.3900   25.7850   28.6620 C   0  0  0  0  0  0  0  0  0  0  0  0
  -30.8130   25.7900   30.3970 C   0  0  0  0  0  0  0  0  0  0  0  0
  -30.5900   25.8020   31.8840 C   0  0  0  0  0  0  0  0  0  0  0  0
  -29.0710   25.7780   32.2780 C   0  0  0  0  0  0  0  0  0  0  0  0
  -28.4660   24.6230   31.6590 N   0  0  0  0  0  0  0  0  0  0  0  0
  -28.6590   24.5060   30.1960 C   0  0  0  0  0  0  0  0  0  0  0  0
  -30.2010   24.5210   29.8620 C   0  0  0  0  0  0  0  0  0  0  0  0
  -27.1110   24.4550   32.1190 C   0  0  0  0  0  0  0  0  0  0  0  0
  -26.9410   24.2740   33.4440 N   0  0  0  0  0  0  0  0  0  0  0  0
  -25.6790   24.1280   34.0130 C   0  0  0  0  0  0  0  0  0  0  0  0
  -24.5890   24.1410   33.1090 C   0  0  0  0  0  0  0  0  0  0  0  0
  -24.8340   24.2790   31.7310 C   0  0  0  0  0  0  0  0  0  0  0  0
  -26.0760   24.5030   31.1370 C   0  0  0  0  0  0  0  0  0  0  0  0
  -32.2420   28.3580   30.1950 C   0  0  0  0  0  0  0  0  0  0  0  0
  -32.9360   29.5780   30.8920 C   0  0  0  0  0  0  0  0  0  0  0  0
  -32.9490   29.6620   32.2750 C   0  0  0  0  0  0  0  0  0  0  0  0
  -33.5110   30.7450   32.9310 C   0  0  0  0  0  0  0  0  0  0  0  0
  -34.0240   31.7400   32.1390 C   0  0  0  0  0  0  0  0  0  0  0  0
  -34.0220   31.6720   30.7610 C   0  0  0  0  0  0  0  0  0  0  0  0
  -33.4340   30.5850   30.1280 C   0  0  0  0  0  0  0  0  0  0  0  0
  3  4  1  0  0  0  0
  4  5  1  0  0  0  0
  5  6  1  0  0  0  0
  6  7  1  0  0  0  0
  7  8  1  0  0  0  0
  4  9  1  0  0  0  0
  8  9  1  0  0  0  0
  8 10  1  0  0  0  0
 10 11  1  0  0  0  0
 11 12  1  0  0  0  0
 12 13  1  0  0  0  0
 13 14  1  0  0  0  0
 10 15  1  0  0  0  0
 14 15  1  0  0  0  0
 13 16  1  0  0  0  0
 16 17  1  0  0  0  0
 17 18  2  0  0  0  0
 18 19  1  0  0  0  0
  1 20  1  0  0  0  0
 19 20  2  0  0  0  0
 16 21  2  0  0  0  0
 20 21  1  0  0  0  0
  7 22  1  0  0  0  0
 22 23  1  0  0  0  0
 23 24  1  0  0  0  0
 24 25  2  0  0  0  0
  2 26  1  0  0  0  0
 25 26  1  0  0  0  0
 26 27  2  0  0  0  0
 23 28  2  0  0  0  0
 27 28  1  0  0  0  0
M  END
$$$$
