8R3F
  PyMOL3.1          3D                             0

 23 23  0  0  0  0  0  0  0  0999 V2000
   16.6070   24.4621   20.0973 C   0  0  0  0  0  0  0  0  0  0  0  0
   15.6547   23.4931   20.1456 C   0  0  0  0  0  0  0  0  0  0  0  0
   14.3420   23.8679   20.3447 C   0  0  0  0  0  0  0  0  0  0  0  0
   14.0231   25.2037   20.4955 C   0  0  0  0  0  0  0  0  0  0  0  0
   15.0070   26.1947   20.4435 C   0  0  0  0  0  0  0  0  0  0  0  0
   16.3293   25.8028   20.2275 C   0  0  0  0  0  0  0  0  0  0  0  0
   12.6958   25.4867   20.7065 O   0  0  0  0  0  0  0  0  0  0  0  0
   12.3526   26.8166   20.3076 C   0  0  0  0  0  0  0  0  0  0  0  0
   13.2340   27.8617   20.9459 C   0  0  0  0  0  0  0  0  0  0  0  0
   14.7080   27.6676   20.5908 C   0  0  0  0  0  0  0  0  0  0  0  0
   15.0469   28.3224   19.2837 N   0  0  0  0  0  0  0  0  0  0  0  0
   17.8969   24.0863   19.9045 F   0  0  0  0  0  0  0  0  0  0  0  0
   15.9131   22.4415   20.0306 H   0  0  0  0  0  0  0  0  0  0  0  0
   13.5554   23.1157   20.3835 H   0  0  0  0  0  0  0  0  0  0  0  0
   17.1409   26.5257   20.1599 H   0  0  0  0  0  0  0  0  0  0  0  0
   11.2990   26.8945   20.5717 H   0  0  0  0  0  0  0  0  0  0  0  0
   12.4159   26.7775   19.2211 H   0  0  0  0  0  0  0  0  0  0  0  0
   13.0719   27.8302   22.0223 H   0  0  0  0  0  0  0  0  0  0  0  0
   12.8723   28.8425   20.6406 H   0  0  0  0  0  0  0  0  0  0  0  0
   15.3363   28.1049   21.3652 H   0  0  0  0  0  0  0  0  0  0  0  0
   14.7351   27.7605   18.4980 H   0  0  0  0  0  0  0  0  0  0  0  0
   16.0484   28.4559   19.1869 H   0  0  0  0  0  0  0  0  0  0  0  0
   14.6069   29.2335   19.2027 H   0  0  0  0  0  0  0  0  0  0  0  0
  1  2  2  0  0  0  0
  2  3  1  0  0  0  0
  3  4  2  0  0  0  0
  4  5  1  0  0  0  0
  1  6  1  0  0  0  0
  5  6  2  0  0  0  0
  4  7  1  0  0  0  0
  7  8  1  0  0  0  0
  8  9  1  0  0  0  0
  5 10  1  0  0  0  0
  9 10  1  0  0  0  0
 10 11  1  0  0  0  0
  1 12  1  0  0  0  0
  2 13  1  0  0  0  0
  3 14  1  0  0  0  0
  6 15  1  0  0  0  0
  8 16  1  0  0  0  0
  8 17  1  0  0  0  0
  9 18  1  0  0  0  0
  9 19  1  0  0  0  0
 10 20  1  0  0  0  0
 11 21  1  0  0  0  0
 11 22  1  0  0  0  0
M  END
$$$$
