7UBT
  PyMOL3.1          3D                             0

 50 54  0  0  0  0  0  0  0  0999 V2000
   21.9410   62.1290   16.0000 N   0  0  0  0  0  0  0  0  0  0  0  0
   24.1060   54.4590   15.1670 C   0  0  0  0  0  0  0  0  0  0  0  0
   24.6810   52.0020   14.5200 O   0  0  0  0  0  0  0  0  0  0  0  0
   25.4460   53.3220   14.6770 P   0  0  0  0  0  0  0  0  0  0  0  0
   24.5630   55.9010   15.3860 C   0  0  0  0  0  0  0  0  0  0  0  0
   21.8690   64.1930   18.7360 N   0  0  0  0  0  0  0  0  0  0  0  0
   25.8260   53.7950   13.2610 O   0  0  0  0  0  0  0  0  0  0  0  0
   23.7980   60.1940   24.9700 S   0  0  0  0  0  0  0  0  0  0  0  0
   23.6110   56.9070   15.2500 C   0  0  0  0  0  0  0  0  0  0  0  0
   20.0700   63.6590   21.9300 N   0  0  0  0  0  0  0  0  0  0  0  0
   26.6010   53.2790   15.6270 O   0  0  0  0  0  0  0  0  0  0  0  0
   23.9210   58.2390   15.5260 C   0  0  0  0  0  0  0  0  0  0  0  0
   23.6620   62.7690   25.2150 N   0  0  0  0  0  0  0  0  0  0  0  0
   18.7630   63.2650   25.2500 O   0  0  0  0  0  0  0  0  0  0  0  0
   25.2320   58.5460   15.9440 C   0  0  0  0  0  0  0  0  0  0  0  0
   19.4860   65.3830   25.3430 N   0  0  0  0  0  0  0  0  0  0  0  0
   19.5560   65.0020   20.1930 O   0  0  0  0  0  0  0  0  0  0  0  0
   23.7440   60.5390   15.8910 C   0  0  0  0  0  0  0  0  0  0  0  0
   20.5080   62.4410   18.4750 O   0  0  0  0  0  0  0  0  0  0  0  0
   23.2550   61.9020   16.1770 C   0  0  0  0  0  0  0  0  0  0  0  0
   24.0280   62.7490   16.6220 O   0  0  0  0  0  0  0  0  0  0  0  0
   21.3410   63.3740   16.4510 C   0  0  0  0  0  0  0  0  0  0  0  0
   20.0340   63.7570   15.6910 C   0  0  0  0  0  0  0  0  0  0  0  0
   20.2770   63.7490   14.1800 C   0  0  0  0  0  0  0  0  0  0  0  0
   19.6170   65.1670   16.1110 C   0  0  0  0  0  0  0  0  0  0  0  0
   18.8890   62.7910   16.0040 C   0  0  0  0  0  0  0  0  0  0  0  0
   21.1970   63.3070   17.9780 C   0  0  0  0  0  0  0  0  0  0  0  0
   22.7810   65.2390   18.2450 C   0  0  0  0  0  0  0  0  0  0  0  0
   23.6360   65.5450   19.4550 C   0  0  0  0  0  0  0  0  0  0  0  0
   22.6740   65.3680   20.6160 C   0  0  0  0  0  0  0  0  0  0  0  0
   21.7960   64.1770   20.2040 C   0  0  0  0  0  0  0  0  0  0  0  0
   20.3800   64.3210   20.7760 C   0  0  0  0  0  0  0  0  0  0  0  0
   20.9900   62.7720   22.5880 C   0  0  0  0  0  0  0  0  0  0  0  0
   21.8910   63.2760   23.5360 C   0  0  0  0  0  0  0  0  0  0  0  0
   22.7240   62.4100   24.2420 C   0  0  0  0  0  0  0  0  0  0  0  0
   24.2670   61.7170   25.6530 C   0  0  0  0  0  0  0  0  0  0  0  0
   22.6530   61.0360   23.9760 C   0  0  0  0  0  0  0  0  0  0  0  0
   21.7700   60.5260   23.0290 C   0  0  0  0  0  0  0  0  0  0  0  0
   20.9410   61.3970   22.3410 C   0  0  0  0  0  0  0  0  0  0  0  0
   18.6600   63.5530   22.3370 C   0  0  0  0  0  0  0  0  0  0  0  0
   18.2690   64.6150   23.3550 C   0  0  0  0  0  0  0  0  0  0  0  0
   18.8680   64.3600   24.7220 C   0  0  0  0  0  0  0  0  0  0  0  0
   19.2460   65.6460   26.7580 C   0  0  0  0  0  0  0  0  0  0  0  0
   20.4340   66.2900   24.6970 C   0  0  0  0  0  0  0  0  0  0  0  0
   23.1060   59.4250   15.5010 C   0  0  0  0  0  0  0  0  0  0  0  0
   26.1940   57.5460   16.0860 C   0  0  0  0  0  0  0  0  0  0  0  0
   25.8510   56.2360   15.7970 C   0  0  0  0  0  0  0  0  0  0  0  0
   23.0640   54.4070   14.2770 F   0  0  0  0  0  0  0  0  0  0  0  0
   23.6090   54.0220   16.3470 F   0  0  0  0  0  0  0  0  0  0  0  0
   25.4300   60.2390   16.2800 S   0  0  0  0  0  0  0  0  0  0  0  0
  2  4  1  0  0  0  0
  3  4  1  0  0  0  0
  2  5  1  0  0  0  0
  4  7  2  0  0  0  0
  5  9  2  0  0  0  0
  4 11  1  0  0  0  0
  9 12  1  0  0  0  0
 12 15  2  0  0  0  0
  1 20  1  0  0  0  0
 18 20  1  0  0  0  0
 20 21  2  0  0  0  0
  1 22  1  0  0  0  0
 22 23  1  0  0  0  0
 23 24  1  0  0  0  0
 23 25  1  0  0  0  0
 23 26  1  0  0  0  0
  6 27  1  0  0  0  0
 19 27  2  0  0  0  0
 22 27  1  0  0  0  0
  6 28  1  0  0  0  0
 28 29  1  0  0  0  0
 29 30  1  0  0  0  0
  6 31  1  0  0  0  0
 30 31  1  0  0  0  0
 10 32  1  0  0  0  0
 17 32  2  0  0  0  0
 31 32  1  0  0  0  0
 10 33  1  0  0  0  0
 33 34  1  0  0  0  0
 13 35  1  0  0  0  0
 34 35  2  0  0  0  0
  8 36  1  0  0  0  0
 13 36  2  0  0  0  0
  8 37  1  0  0  0  0
 35 37  1  0  0  0  0
 37 38  2  0  0  0  0
 33 39  2  0  0  0  0
 38 39  1  0  0  0  0
 10 40  1  0  0  0  0
 40 41  1  0  0  0  0
 14 42  2  0  0  0  0
 16 42  1  0  0  0  0
 41 42  1  0  0  0  0
 16 43  1  0  0  0  0
 16 44  1  0  0  0  0
 12 45  1  0  0  0  0
 18 45  2  0  0  0  0
 15 46  1  0  0  0  0
  5 47  1  0  0  0  0
 46 47  2  0  0  0  0
  2 48  1  0  0  0  0
  2 49  1  0  0  0  0
 15 50  1  0  0  0  0
 18 50  1  0  0  0  0
M  END
$$$$
