7P1L
  PyMOL3.1          3D                             0

 58 64  0  0  0  0  0  0  0  0999 V2000
   -0.8021   13.0968   -4.0716 N   0  0  0  0  0  0  0  0  0  0  0  0
    0.8483   11.4060   -3.8737 C   0  0  0  0  0  0  0  0  0  0  0  0
   -1.6041   18.7091  -11.5092 O   0  0  0  0  0  0  0  0  0  0  0  0
   -0.4426   11.8595   -3.7244 C   0  0  0  0  0  0  0  0  0  0  0  0
   -0.2310   15.0201   -5.1729 N   0  0  0  0  0  0  0  0  0  0  0  0
    0.1749   13.8578   -4.5978 C   0  0  0  0  0  0  0  0  0  0  0  0
    0.0143   19.3948   -9.2424 N   0  0  0  0  0  0  0  0  0  0  0  0
    0.4800   16.0782   -5.8047 C   0  0  0  0  0  0  0  0  0  0  0  0
    1.4632   13.5055   -4.7725 N   0  0  0  0  0  0  0  0  0  0  0  0
    1.8677   16.1755   -5.8018 C   0  0  0  0  0  0  0  0  0  0  0  0
    3.0989   11.8791   -4.5443 N   0  0  0  0  0  0  0  0  0  0  0  0
    2.4815   17.2344   -6.4538 C   0  0  0  0  0  0  0  0  0  0  0  0
    6.5321   16.7559   -5.0522 N   0  0  0  0  0  0  0  0  0  0  0  0
    1.7170   18.1836   -7.1182 C   0  0  0  0  0  0  0  0  0  0  0  0
    5.4816   15.0835   -6.0392 N   0  0  0  0  0  0  0  0  0  0  0  0
    0.3318   18.1035   -7.1245 C   0  0  0  0  0  0  0  0  0  0  0  0
   -0.5114   19.0913   -7.9016 C   0  0  0  0  0  0  0  0  0  0  0  0
    0.2562   18.1836  -10.0565 C   0  0  0  0  0  0  0  0  0  0  0  0
   -1.0094   17.6955  -10.7079 C   0  0  0  0  0  0  0  0  0  0  0  0
   -1.9958   19.7602  -10.6326 C   0  0  0  0  0  0  0  0  0  0  0  0
   -0.8045   20.3976   -9.9595 C   0  0  0  0  0  0  0  0  0  0  0  0
   -0.2776   17.0588   -6.4396 C   0  0  0  0  0  0  0  0  0  0  0  0
    1.8166   12.2667   -4.4018 C   0  0  0  0  0  0  0  0  0  0  0  0
    4.1051   12.7540   -5.1298 C   0  0  0  0  0  0  0  0  0  0  0  0
    4.7692   13.6201   -4.0872 C   0  0  0  0  0  0  0  0  0  0  0  0
    5.4316   14.8315   -4.6842 C   0  0  0  0  0  0  0  0  0  0  0  0
    6.0812   15.8686   -4.0981 C   0  0  0  0  0  0  0  0  0  0  0  0
    6.1434   16.2503   -6.2141 C   0  0  0  0  0  0  0  0  0  0  0  0
    1.3279    9.6754   -3.2896 Br  0  0  0  0  0  0  0  0  0  0  0  0
  -28.4426   35.9408  -36.0240 N   0  0  0  0  0  0  0  0  0  0  0  0
  -28.8504   37.5393  -34.3072 C   0  0  0  0  0  0  0  0  0  0  0  0
  -35.1155   29.9395  -39.3011 O   0  0  0  0  0  0  0  0  0  0  0  0
  -28.2783   37.1670  -35.5079 C   0  0  0  0  0  0  0  0  0  0  0  0
  -29.5560   33.9404  -35.8978 N   0  0  0  0  0  0  0  0  0  0  0  0
  -29.2046   35.1068  -35.2947 C   0  0  0  0  0  0  0  0  0  0  0  0
  -33.2747   29.3938  -37.1656 N   0  0  0  0  0  0  0  0  0  0  0  0
  -30.2690   32.8037  -35.4601 C   0  0  0  0  0  0  0  0  0  0  0  0
  -29.7994   35.3770  -34.1132 N   0  0  0  0  0  0  0  0  0  0  0  0
  -30.6979   32.5790  -34.1560 C   0  0  0  0  0  0  0  0  0  0  0  0
  -30.2145   36.9263  -32.4389 N   0  0  0  0  0  0  0  0  0  0  0  0
  -31.4964   31.4792  -33.8780 C   0  0  0  0  0  0  0  0  0  0  0  0
  -31.9744   31.8871  -29.7996 N   0  0  0  0  0  0  0  0  0  0  0  0
  -31.8878   30.6250  -34.9020 C   0  0  0  0  0  0  0  0  0  0  0  0
  -32.4873   33.6920  -30.9550 N   0  0  0  0  0  0  0  0  0  0  0  0
  -31.4532   30.8355  -36.2079 C   0  0  0  0  0  0  0  0  0  0  0  0
  -31.9501   29.9945  -37.3656 C   0  0  0  0  0  0  0  0  0  0  0  0
  -33.5907   28.3859  -38.2036 C   0  0  0  0  0  0  0  0  0  0  0  0
  -34.0176   29.0502  -39.4969 C   0  0  0  0  0  0  0  0  0  0  0  0
  -34.7126   30.9650  -38.4070 C   0  0  0  0  0  0  0  0  0  0  0  0
  -34.3499   30.4033  -37.0542 C   0  0  0  0  0  0  0  0  0  0  0  0
  -30.6004   31.9031  -36.4593 C   0  0  0  0  0  0  0  0  0  0  0  0
  -29.6210   36.6010  -33.6049 C   0  0  0  0  0  0  0  0  0  0  0  0
  -31.1167   36.0109  -31.7557 C   0  0  0  0  0  0  0  0  0  0  0  0
  -30.3655   35.0789  -30.8469 C   0  0  0  0  0  0  0  0  0  0  0  0
  -31.1900   33.8639  -30.5245 C   0  0  0  0  0  0  0  0  0  0  0  0
  -30.8941   32.7441  -29.8142 C   0  0  0  0  0  0  0  0  0  0  0  0
  -32.9139   32.4925  -30.5027 C   0  0  0  0  0  0  0  0  0  0  0  0
  -28.5757   39.2740  -33.5960 Br  0  0  0  0  0  0  0  0  0  0  0  0
  1  4  2  0  0  0  0
  2  4  1  0  0  0  0
  1  6  1  0  0  0  0
  5  6  1  0  0  0  0
  5  8  1  0  0  0  0
  6  9  2  0  0  0  0
  8 10  1  0  0  0  0
 10 12  2  0  0  0  0
 12 14  1  0  0  0  0
 14 16  2  0  0  0  0
  7 17  1  0  0  0  0
 16 17  1  0  0  0  0
  7 18  1  0  0  0  0
  3 19  1  0  0  0  0
 18 19  1  0  0  0  0
  3 20  1  0  0  0  0
  7 21  1  0  0  0  0
 20 21  1  0  0  0  0
  8 22  2  0  0  0  0
 16 22  1  0  0  0  0
  2 23  2  0  0  0  0
  9 23  1  0  0  0  0
 11 23  1  0  0  0  0
 11 24  1  0  0  0  0
 24 25  1  0  0  0  0
 15 26  1  0  0  0  0
 25 26  1  0  0  0  0
 13 27  1  0  0  0  0
 26 27  2  0  0  0  0
 13 28  2  0  0  0  0
 15 28  1  0  0  0  0
  2 29  1  0  0  0  0
 30 33  2  0  0  0  0
 31 33  1  0  0  0  0
 30 35  1  0  0  0  0
 34 35  1  0  0  0  0
 34 37  1  0  0  0  0
 35 38  2  0  0  0  0
 37 39  1  0  0  0  0
 39 41  2  0  0  0  0
 41 43  1  0  0  0  0
 43 45  2  0  0  0  0
 36 46  1  0  0  0  0
 45 46  1  0  0  0  0
 36 47  1  0  0  0  0
 32 48  1  0  0  0  0
 47 48  1  0  0  0  0
 32 49  1  0  0  0  0
 36 50  1  0  0  0  0
 49 50  1  0  0  0  0
 37 51  2  0  0  0  0
 45 51  1  0  0  0  0
 31 52  2  0  0  0  0
 38 52  1  0  0  0  0
 40 52  1  0  0  0  0
 40 53  1  0  0  0  0
 53 54  1  0  0  0  0
 44 55  1  0  0  0  0
 54 55  1  0  0  0  0
 42 56  1  0  0  0  0
 55 56  2  0  0  0  0
 42 57  2  0  0  0  0
 44 57  1  0  0  0  0
 31 58  1  0  0  0  0
M  END
$$$$
