8V80
  PyMOL3.1          3D                             0

 47 51  0  0  0  0  0  0  0  0999 V2000
  152.9280  150.9000  130.4090 C   0  0  0  0  0  0  0  0  0  0  0  0
  153.5780  151.2450  131.6650 C   0  0  0  0  0  0  0  0  0  0  0  0
  152.9640  150.7600  132.7160 C   0  0  0  0  0  0  0  0  0  0  0  0
  151.7730  149.9020  132.3510 C   0  0  0  0  0  0  0  0  0  0  0  0
  151.6720  150.1070  130.8140 C   0  0  0  0  0  0  0  0  0  0  0  0
  151.2000  148.7960  130.1770 C   0  0  0  0  0  0  0  0  0  0  0  0
  152.1890  147.7790  130.4840 N   0  0  0  0  0  0  0  0  0  0  0  0
  152.3180  147.4830  131.8180 C   0  0  0  0  0  0  0  0  0  0  0  0
  152.1030  148.4830  132.7750 C   0  0  0  0  0  0  0  0  0  0  0  0
  152.2700  148.1600  134.1180 C   0  0  0  0  0  0  0  0  0  0  0  0
  152.6520  146.8830  134.4980 C   0  0  0  0  0  0  0  0  0  0  0  0
  152.8720  145.9020  133.5490 C   0  0  0  0  0  0  0  0  0  0  0  0
  152.7060  146.2080  132.2130 C   0  0  0  0  0  0  0  0  0  0  0  0
  152.8170  146.4760  136.2050 S   0  0  0  0  0  0  0  0  0  0  0  0
  151.5200  146.1560  136.6970 O   0  0  0  0  0  0  0  0  0  0  0  0
  153.8370  145.4830  136.3050 O   0  0  0  0  0  0  0  0  0  0  0  0
  153.3230  147.7650  136.9920 N   0  0  0  0  0  0  0  0  0  0  0  0
  150.9560  148.8920  128.6760 C   0  0  0  0  0  0  0  0  0  0  0  0
  152.0210  148.9210  127.8130 C   0  0  0  0  0  0  0  0  0  0  0  0
  151.8500  149.0060  126.4420 C   0  0  0  0  0  0  0  0  0  0  0  0
  150.6040  149.0640  125.9010 C   0  0  0  0  0  0  0  0  0  0  0  0
  149.4610  149.0440  126.7300 C   0  0  0  0  0  0  0  0  0  0  0  0
  148.1550  149.1580  126.2000 C   0  0  0  0  0  0  0  0  0  0  0  0
  147.0670  149.1810  127.0210 C   0  0  0  0  0  0  0  0  0  0  0  0
  147.2190  149.0950  128.3910 C   0  0  0  0  0  0  0  0  0  0  0  0
  148.4620  148.9830  128.9470 C   0  0  0  0  0  0  0  0  0  0  0  0
  149.6290  148.9540  128.1420 C   0  0  0  0  0  0  0  0  0  0  0  0
  150.9870  150.1930  132.8550 H   0  0  0  0  0  0  0  0  0  0  0  0
  154.3920  151.7870  131.7090 H   0  0  0  0  0  0  0  0  0  0  0  0
  153.2560  150.9350  133.6340 H   0  0  0  0  0  0  0  0  0  0  0  0
  150.9280  150.7240  130.6600 H   0  0  0  0  0  0  0  0  0  0  0  0
  150.3670  148.5750  130.6350 H   0  0  0  0  0  0  0  0  0  0  0  0
  152.6780  147.3950  129.8670 H   0  0  0  0  0  0  0  0  0  0  0  0
  152.1090  148.8380  134.8060 H   0  0  0  0  0  0  0  0  0  0  0  0
  153.1340  144.9950  133.8050 H   0  0  0  0  0  0  0  0  0  0  0  0
  152.9220  145.5210  131.5530 H   0  0  0  0  0  0  0  0  0  0  0  0
  148.4970  148.9270  129.9230 H   0  0  0  0  0  0  0  0  0  0  0  0
  153.8910  148.2550  136.5250 H   0  0  0  0  0  0  0  0  0  0  0  0
  153.6670  147.5090  137.7630 H   0  0  0  0  0  0  0  0  0  0  0  0
  152.9450  148.8830  128.1320 H   0  0  0  0  0  0  0  0  0  0  0  0
  152.6350  149.0300  125.8590 H   0  0  0  0  0  0  0  0  0  0  0  0
  150.5140  149.1200  124.9290 H   0  0  0  0  0  0  0  0  0  0  0  0
  148.0160  149.2250  125.2340 H   0  0  0  0  0  0  0  0  0  0  0  0
  146.1720  149.2570  126.6350 H   0  0  0  0  0  0  0  0  0  0  0  0
  153.5500  150.3910  129.8490 H   0  0  0  0  0  0  0  0  0  0  0  0
  152.6730  151.7110  129.9220 H   0  0  0  0  0  0  0  0  0  0  0  0
  146.4310  149.1180  128.9710 H   0  0  0  0  0  0  0  0  0  0  0  0
  1  2  1  0  0  0  0
  2  3  2  0  0  0  0
  3  4  1  0  0  0  0
  1  5  1  0  0  0  0
  4  5  1  0  0  0  0
  5  6  1  0  0  0  0
  6  7  1  0  0  0  0
  7  8  1  0  0  0  0
  4  9  1  0  0  0  0
  8  9  1  0  0  0  0
  9 10  2  0  0  0  0
 10 11  1  0  0  0  0
 11 12  2  0  0  0  0
  8 13  2  0  0  0  0
 12 13  1  0  0  0  0
 11 14  1  0  0  0  0
 14 15  2  0  0  0  0
 14 16  2  0  0  0  0
 14 17  1  0  0  0  0
  6 18  1  0  0  0  0
 18 19  2  0  0  0  0
 19 20  1  0  0  0  0
 20 21  2  0  0  0  0
 21 22  1  0  0  0  0
 22 23  2  0  0  0  0
 23 24  1  0  0  0  0
 24 25  2  0  0  0  0
 25 26  1  0  0  0  0
 18 27  1  0  0  0  0
 22 27  1  0  0  0  0
 26 27  2  0  0  0  0
  4 28  1  0  0  0  0
  2 29  1  0  0  0  0
  3 30  1  0  0  0  0
  5 31  1  0  0  0  0
  6 32  1  0  0  0  0
  7 33  1  0  0  0  0
 10 34  1  0  0  0  0
 12 35  1  0  0  0  0
 13 36  1  0  0  0  0
 26 37  1  0  0  0  0
 17 38  1  0  0  0  0
 17 39  1  0  0  0  0
 19 40  1  0  0  0  0
 20 41  1  0  0  0  0
 21 42  1  0  0  0  0
 23 43  1  0  0  0  0
 24 44  1  0  0  0  0
  1 45  1  0  0  0  0
  1 46  1  0  0  0  0
 25 47  1  0  0  0  0
M  END
$$$$
