8V80
  PyMOL3.1          3D                             0

 47 51  0  0  0  0  0  0  0  0999 V2000
  154.8490  127.9520  130.4050 C   0  0  0  0  0  0  0  0  0  0  0  0
  155.3780  127.4400  131.6600 C   0  0  0  0  0  0  0  0  0  0  0  0
  154.7280  127.8750  132.7120 C   0  0  0  0  0  0  0  0  0  0  0  0
  153.5440  128.7430  132.3470 C   0  0  0  0  0  0  0  0  0  0  0  0
  153.7080  128.9020  130.8100 C   0  0  0  0  0  0  0  0  0  0  0  0
  152.3160  128.9470  130.1740 C   0  0  0  0  0  0  0  0  0  0  0  0
  151.6530  127.6930  130.4810 N   0  0  0  0  0  0  0  0  0  0  0  0
  151.4120  127.4790  131.8150 C   0  0  0  0  0  0  0  0  0  0  0  0
  152.2960  127.9920  132.7720 C   0  0  0  0  0  0  0  0  0  0  0  0
  152.0420  127.7340  134.1150 C   0  0  0  0  0  0  0  0  0  0  0  0
  150.9440  126.9760  134.4950 C   0  0  0  0  0  0  0  0  0  0  0  0
  150.0780  126.4650  133.5460 C   0  0  0  0  0  0  0  0  0  0  0  0
  150.3180  126.7170  132.2100 C   0  0  0  0  0  0  0  0  0  0  0  0
  150.6080  126.6940  136.2020 S   0  0  0  0  0  0  0  0  0  0  0  0
  149.9040  127.8300  136.6940 O   0  0  0  0  0  0  0  0  0  0  0  0
  149.9790  125.4180  136.3030 O   0  0  0  0  0  0  0  0  0  0  0  0
  151.9910  126.6110  136.9890 N   0  0  0  0  0  0  0  0  0  0  0  0
  152.3310  129.2090  128.6730 C   0  0  0  0  0  0  0  0  0  0  0  0
  152.6870  128.2040  127.8100 C   0  0  0  0  0  0  0  0  0  0  0  0
  152.7140  128.3930  126.4390 C   0  0  0  0  0  0  0  0  0  0  0  0
  152.3850  129.5960  125.8980 C   0  0  0  0  0  0  0  0  0  0  0  0
  152.0140  130.6770  126.7260 C   0  0  0  0  0  0  0  0  0  0  0  0
  151.7210  131.9550  126.1960 C   0  0  0  0  0  0  0  0  0  0  0  0
  151.4070  132.9970  127.0170 C   0  0  0  0  0  0  0  0  0  0  0  0
  151.3720  132.8260  128.3870 C   0  0  0  0  0  0  0  0  0  0  0  0
  151.6490  131.6090  128.9430 C   0  0  0  0  0  0  0  0  0  0  0  0
  151.9810  130.4900  128.1380 C   0  0  0  0  0  0  0  0  0  0  0  0
  153.5800  129.5800  132.8510 H   0  0  0  0  0  0  0  0  0  0  0  0
  156.1450  126.8320  131.7040 H   0  0  0  0  0  0  0  0  0  0  0  0
  154.9850  127.6510  133.6290 H   0  0  0  0  0  0  0  0  0  0  0  0
  154.0660  129.8000  130.6560 H   0  0  0  0  0  0  0  0  0  0  0  0
  151.8490  129.6720  130.6320 H   0  0  0  0  0  0  0  0  0  0  0  0
  151.4380  127.1090  129.8640 H   0  0  0  0  0  0  0  0  0  0  0  0
  152.6370  128.0950  134.8030 H   0  0  0  0  0  0  0  0  0  0  0  0
  149.2960  125.9350  133.8030 H   0  0  0  0  0  0  0  0  0  0  0  0
  149.7310  126.3000  131.5510 H   0  0  0  0  0  0  0  0  0  0  0  0
  151.6070  131.5590  129.9190 H   0  0  0  0  0  0  0  0  0  0  0  0
  152.6320  126.2200  136.5220 H   0  0  0  0  0  0  0  0  0  0  0  0
  151.8540  126.2040  137.7600 H   0  0  0  0  0  0  0  0  0  0  0  0
  152.9360  127.3140  128.1290 H   0  0  0  0  0  0  0  0  0  0  0  0
  152.9790  127.6530  125.8560 H   0  0  0  0  0  0  0  0  0  0  0  0
  152.4110  129.6990  124.9250 H   0  0  0  0  0  0  0  0  0  0  0  0
  151.7400  132.1080  125.2300 H   0  0  0  0  0  0  0  0  0  0  0  0
  151.2030  133.8720  126.6310 H   0  0  0  0  0  0  0  0  0  0  0  0
  154.5570  127.2030  129.8460 H   0  0  0  0  0  0  0  0  0  0  0  0
  155.5420  128.4440  129.9170 H   0  0  0  0  0  0  0  0  0  0  0  0
  151.1510  133.5830  128.9670 H   0  0  0  0  0  0  0  0  0  0  0  0
  1  2  1  0  0  0  0
  2  3  2  0  0  0  0
  3  4  1  0  0  0  0
  1  5  1  0  0  0  0
  4  5  1  0  0  0  0
  5  6  1  0  0  0  0
  6  7  1  0  0  0  0
  7  8  1  0  0  0  0
  4  9  1  0  0  0  0
  8  9  1  0  0  0  0
  9 10  2  0  0  0  0
 10 11  1  0  0  0  0
 11 12  2  0  0  0  0
  8 13  2  0  0  0  0
 12 13  1  0  0  0  0
 11 14  1  0  0  0  0
 14 15  2  0  0  0  0
 14 16  2  0  0  0  0
 14 17  1  0  0  0  0
  6 18  1  0  0  0  0
 18 19  2  0  0  0  0
 19 20  1  0  0  0  0
 20 21  2  0  0  0  0
 21 22  1  0  0  0  0
 22 23  2  0  0  0  0
 23 24  1  0  0  0  0
 24 25  2  0  0  0  0
 25 26  1  0  0  0  0
 18 27  1  0  0  0  0
 22 27  1  0  0  0  0
 26 27  2  0  0  0  0
  4 28  1  0  0  0  0
  2 29  1  0  0  0  0
  3 30  1  0  0  0  0
  5 31  1  0  0  0  0
  6 32  1  0  0  0  0
  7 33  1  0  0  0  0
 10 34  1  0  0  0  0
 12 35  1  0  0  0  0
 13 36  1  0  0  0  0
 26 37  1  0  0  0  0
 17 38  1  0  0  0  0
 17 39  1  0  0  0  0
 19 40  1  0  0  0  0
 20 41  1  0  0  0  0
 21 42  1  0  0  0  0
 23 43  1  0  0  0  0
 24 44  1  0  0  0  0
  1 45  1  0  0  0  0
  1 46  1  0  0  0  0
 25 47  1  0  0  0  0
M  END
$$$$
