8V80
  PyMOL3.1          3D                             0

 47 51  0  0  0  0  0  0  0  0999 V2000
  118.6010  136.4910  130.4050 C   0  0  0  0  0  0  0  0  0  0  0  0
  117.8720  136.5940  131.6610 C   0  0  0  0  0  0  0  0  0  0  0  0
  118.6540  136.6240  132.7120 C   0  0  0  0  0  0  0  0  0  0  0  0
  120.1220  136.6180  132.3470 C   0  0  0  0  0  0  0  0  0  0  0  0
  120.0840  136.3930  130.8100 C   0  0  0  0  0  0  0  0  0  0  0  0
  121.2360  137.1750  130.1740 C   0  0  0  0  0  0  0  0  0  0  0  0
  121.0350  138.5780  130.4810 N   0  0  0  0  0  0  0  0  0  0  0  0
  121.1050  138.8930  131.8150 C   0  0  0  0  0  0  0  0  0  0  0  0
  120.6910  137.9580  132.7720 C   0  0  0  0  0  0  0  0  0  0  0  0
  120.7450  138.3170  134.1150 C   0  0  0  0  0  0  0  0  0  0  0  0
  121.1880  139.5750  134.4950 C   0  0  0  0  0  0  0  0  0  0  0  0
  121.5880  140.4970  133.5460 C   0  0  0  0  0  0  0  0  0  0  0  0
  121.5420  140.1530  132.2100 C   0  0  0  0  0  0  0  0  0  0  0  0
  121.2940  140.0010  136.2020 S   0  0  0  0  0  0  0  0  0  0  0  0
  122.5310  139.4950  136.6940 O   0  0  0  0  0  0  0  0  0  0  0  0
  121.0530  141.4030  136.3030 O   0  0  0  0  0  0  0  0  0  0  0  0
  120.1260  139.2550  136.9890 N   0  0  0  0  0  0  0  0  0  0  0  0
  121.3780  136.9540  128.6730 C   0  0  0  0  0  0  0  0  0  0  0  0
  120.5000  137.5570  127.8100 C   0  0  0  0  0  0  0  0  0  0  0  0
  120.5880  137.3890  126.4390 C   0  0  0  0  0  0  0  0  0  0  0  0
  121.5610  136.6090  125.8980 C   0  0  0  0  0  0  0  0  0  0  0  0
  122.4970  135.9520  126.7260 C   0  0  0  0  0  0  0  0  0  0  0  0
  123.4850  135.0910  126.1960 C   0  0  0  0  0  0  0  0  0  0  0  0
  124.3520  134.4320  127.0170 C   0  0  0  0  0  0  0  0  0  0  0  0
  124.2790  134.5910  128.3870 C   0  0  0  0  0  0  0  0  0  0  0  0
  123.3400  135.4120  128.9430 C   0  0  0  0  0  0  0  0  0  0  0  0
  122.4140  136.1230  128.1380 C   0  0  0  0  0  0  0  0  0  0  0  0
  120.5850  135.9190  132.8510 H   0  0  0  0  0  0  0  0  0  0  0  0
  116.8950  136.6350  131.7040 H   0  0  0  0  0  0  0  0  0  0  0  0
  118.3150  136.6540  133.6300 H   0  0  0  0  0  0  0  0  0  0  0  0
  120.3220  135.4560  130.6560 H   0  0  0  0  0  0  0  0  0  0  0  0
  122.0400  136.8630  130.6320 H   0  0  0  0  0  0  0  0  0  0  0  0
  120.8660  139.1770  129.8640 H   0  0  0  0  0  0  0  0  0  0  0  0
  120.4760  137.6750  134.8030 H   0  0  0  0  0  0  0  0  0  0  0  0
  121.9090  141.3850  133.8030 H   0  0  0  0  0  0  0  0  0  0  0  0
  121.7720  140.8350  131.5510 H   0  0  0  0  0  0  0  0  0  0  0  0
  123.3450  135.4780  129.9190 H   0  0  0  0  0  0  0  0  0  0  0  0
  119.3780  139.1950  136.5220 H   0  0  0  0  0  0  0  0  0  0  0  0
  119.9980  139.6650  137.7600 H   0  0  0  0  0  0  0  0  0  0  0  0
  119.7750  138.1320  128.1290 H   0  0  0  0  0  0  0  0  0  0  0  0
  119.9390  137.8310  125.8560 H   0  0  0  0  0  0  0  0  0  0  0  0
  121.6010  136.5110  124.9250 H   0  0  0  0  0  0  0  0  0  0  0  0
  123.5590  134.9560  125.2300 H   0  0  0  0  0  0  0  0  0  0  0  0
  125.0300  133.8440  126.6310 H   0  0  0  0  0  0  0  0  0  0  0  0
  118.3980  137.2680  129.8460 H   0  0  0  0  0  0  0  0  0  0  0  0
  118.3300  135.6860  129.9180 H   0  0  0  0  0  0  0  0  0  0  0  0
  124.9020  134.1080  128.9670 H   0  0  0  0  0  0  0  0  0  0  0  0
  1  2  1  0  0  0  0
  2  3  2  0  0  0  0
  3  4  1  0  0  0  0
  1  5  1  0  0  0  0
  4  5  1  0  0  0  0
  5  6  1  0  0  0  0
  6  7  1  0  0  0  0
  7  8  1  0  0  0  0
  4  9  1  0  0  0  0
  8  9  1  0  0  0  0
  9 10  2  0  0  0  0
 10 11  1  0  0  0  0
 11 12  2  0  0  0  0
  8 13  2  0  0  0  0
 12 13  1  0  0  0  0
 11 14  1  0  0  0  0
 14 15  2  0  0  0  0
 14 16  2  0  0  0  0
 14 17  1  0  0  0  0
  6 18  1  0  0  0  0
 18 19  2  0  0  0  0
 19 20  1  0  0  0  0
 20 21  2  0  0  0  0
 21 22  1  0  0  0  0
 22 23  2  0  0  0  0
 23 24  1  0  0  0  0
 24 25  2  0  0  0  0
 25 26  1  0  0  0  0
 18 27  1  0  0  0  0
 22 27  1  0  0  0  0
 26 27  2  0  0  0  0
  4 28  1  0  0  0  0
  2 29  1  0  0  0  0
  3 30  1  0  0  0  0
  5 31  1  0  0  0  0
  6 32  1  0  0  0  0
  7 33  1  0  0  0  0
 10 34  1  0  0  0  0
 12 35  1  0  0  0  0
 13 36  1  0  0  0  0
 26 37  1  0  0  0  0
 17 38  1  0  0  0  0
 17 39  1  0  0  0  0
 19 40  1  0  0  0  0
 20 41  1  0  0  0  0
 21 42  1  0  0  0  0
 23 43  1  0  0  0  0
 24 44  1  0  0  0  0
  1 45  1  0  0  0  0
  1 46  1  0  0  0  0
 25 47  1  0  0  0  0
M  END
$$$$
