8V80
  PyMOL3.1          3D                             0

 47 51  0  0  0  0  0  0  0  0999 V2000
  133.6250  119.0520  130.4080 C   0  0  0  0  0  0  0  0  0  0  0  0
  133.3010  118.3910  131.6640 C   0  0  0  0  0  0  0  0  0  0  0  0
  133.5140  119.1440  132.7150 C   0  0  0  0  0  0  0  0  0  0  0  0
  133.9730  120.5380  132.3500 C   0  0  0  0  0  0  0  0  0  0  0  0
  134.1750  120.4320  130.8130 C   0  0  0  0  0  0  0  0  0  0  0  0
  133.7870  121.7690  130.1760 C   0  0  0  0  0  0  0  0  0  0  0  0
  132.3900  122.0120  130.4830 N   0  0  0  0  0  0  0  0  0  0  0  0
  132.1120  122.1750  131.8170 C   0  0  0  0  0  0  0  0  0  0  0  0
  132.8730  121.4930  132.7740 C   0  0  0  0  0  0  0  0  0  0  0  0
  132.5490  121.6560  134.1170 C   0  0  0  0  0  0  0  0  0  0  0  0
  131.4890  122.4650  134.4970 C   0  0  0  0  0  0  0  0  0  0  0  0
  130.7350  123.1300  133.5480 C   0  0  0  0  0  0  0  0  0  0  0  0
  131.0490  122.9800  132.2120 C   0  0  0  0  0  0  0  0  0  0  0  0
  131.1160  122.6970  136.2040 S   0  0  0  0  0  0  0  0  0  0  0  0
  131.9790  123.7180  136.6960 O   0  0  0  0  0  0  0  0  0  0  0  0
  129.7080  122.9010  136.3050 O   0  0  0  0  0  0  0  0  0  0  0  0
  131.4650  121.3560  136.9910 N   0  0  0  0  0  0  0  0  0  0  0  0
  134.0410  121.8360  128.6750 C   0  0  0  0  0  0  0  0  0  0  0  0
  133.1960  121.1860  127.8120 C   0  0  0  0  0  0  0  0  0  0  0  0
  133.3840  121.2180  126.4410 C   0  0  0  0  0  0  0  0  0  0  0  0
  134.4260  121.9030  125.9000 C   0  0  0  0  0  0  0  0  0  0  0  0
  135.3400  122.5910  126.7280 C   0  0  0  0  0  0  0  0  0  0  0  0
  136.4630  123.2650  126.1980 C   0  0  0  0  0  0  0  0  0  0  0  0
  137.3580  123.8860  127.0190 C   0  0  0  0  0  0  0  0  0  0  0  0
  137.1840  123.8660  128.3890 C   0  0  0  0  0  0  0  0  0  0  0  0
  136.1130  123.2270  128.9450 C   0  0  0  0  0  0  0  0  0  0  0  0
  135.1510  122.5650  128.1400 C   0  0  0  0  0  0  0  0  0  0  0  0
  134.7810  120.7640  132.8540 H   0  0  0  0  0  0  0  0  0  0  0  0
  132.9610  117.4740  131.7080 H   0  0  0  0  0  0  0  0  0  0  0  0
  133.3800  118.8310  133.6330 H   0  0  0  0  0  0  0  0  0  0  0  0
  135.1400  120.3690  130.6590 H   0  0  0  0  0  0  0  0  0  0  0  0
  134.3320  122.4380  130.6340 H   0  0  0  0  0  0  0  0  0  0  0  0
  131.7680  122.0350  129.8660 H   0  0  0  0  0  0  0  0  0  0  0  0
  133.0770  121.2020  134.8050 H   0  0  0  0  0  0  0  0  0  0  0  0
  129.9890  123.7090  133.8050 H   0  0  0  0  0  0  0  0  0  0  0  0
  130.4700  123.4080  131.5530 H   0  0  0  0  0  0  0  0  0  0  0  0
  136.0520  123.2520  129.9210 H   0  0  0  0  0  0  0  0  0  0  0  0
  131.2920  120.6270  136.5240 H   0  0  0  0  0  0  0  0  0  0  0  0
  131.0360  121.3620  137.7620 H   0  0  0  0  0  0  0  0  0  0  0  0
  132.4260  120.6740  128.1310 H   0  0  0  0  0  0  0  0  0  0  0  0
  132.7630  120.7370  125.8580 H   0  0  0  0  0  0  0  0  0  0  0  0
  134.5320  121.9100  124.9270 H   0  0  0  0  0  0  0  0  0  0  0  0
  136.6150  123.2930  125.2320 H   0  0  0  0  0  0  0  0  0  0  0  0
  138.1260  124.3500  126.6330 H   0  0  0  0  0  0  0  0  0  0  0  0
  132.8230  119.0980  129.8490 H   0  0  0  0  0  0  0  0  0  0  0  0
  134.3070  118.5450  129.9210 H   0  0  0  0  0  0  0  0  0  0  0  0
  137.8350  124.3110  128.9690 H   0  0  0  0  0  0  0  0  0  0  0  0
  1  2  1  0  0  0  0
  2  3  2  0  0  0  0
  3  4  1  0  0  0  0
  1  5  1  0  0  0  0
  4  5  1  0  0  0  0
  5  6  1  0  0  0  0
  6  7  1  0  0  0  0
  7  8  1  0  0  0  0
  4  9  1  0  0  0  0
  8  9  1  0  0  0  0
  9 10  2  0  0  0  0
 10 11  1  0  0  0  0
 11 12  2  0  0  0  0
  8 13  2  0  0  0  0
 12 13  1  0  0  0  0
 11 14  1  0  0  0  0
 14 15  2  0  0  0  0
 14 16  2  0  0  0  0
 14 17  1  0  0  0  0
  6 18  1  0  0  0  0
 18 19  2  0  0  0  0
 19 20  1  0  0  0  0
 20 21  2  0  0  0  0
 21 22  1  0  0  0  0
 22 23  2  0  0  0  0
 23 24  1  0  0  0  0
 24 25  2  0  0  0  0
 25 26  1  0  0  0  0
 18 27  1  0  0  0  0
 22 27  1  0  0  0  0
 26 27  2  0  0  0  0
  4 28  1  0  0  0  0
  2 29  1  0  0  0  0
  3 30  1  0  0  0  0
  5 31  1  0  0  0  0
  6 32  1  0  0  0  0
  7 33  1  0  0  0  0
 10 34  1  0  0  0  0
 12 35  1  0  0  0  0
 13 36  1  0  0  0  0
 26 37  1  0  0  0  0
 17 38  1  0  0  0  0
 17 39  1  0  0  0  0
 19 40  1  0  0  0  0
 20 41  1  0  0  0  0
 21 42  1  0  0  0  0
 23 43  1  0  0  0  0
 24 44  1  0  0  0  0
  1 45  1  0  0  0  0
  1 46  1  0  0  0  0
 25 47  1  0  0  0  0
M  END
$$$$
