7JVQ
  PyMOL3.1          3D                             0

 20 23  0  0  0  0  0  0  0  0999 V2000
   92.8640  107.1250   78.0620 C   0  0  0  0  0  0  0  0  0  0  0  0
   93.9520  106.2300   77.5980 N   0  0  0  0  0  0  0  0  0  0  0  0
   89.1410  110.5670   78.7540 O   0  0  0  0  0  0  0  0  0  0  0  0
   91.8250  107.5060   77.0060 C   0  0  0  0  0  0  0  0  0  0  0  0
   89.1690  110.9070   81.3690 O   0  0  0  0  0  0  0  0  0  0  0  0
   92.0710  106.5640   79.2590 C   0  0  0  0  0  0  0  0  0  0  0  0
   91.9970  107.1470   75.6570 C   0  0  0  0  0  0  0  0  0  0  0  0
   94.3560  106.5830   76.2260 C   0  0  0  0  0  0  0  0  0  0  0  0
   93.2180  106.3890   75.2280 C   0  0  0  0  0  0  0  0  0  0  0  0
   90.6850  108.2250   77.4410 C   0  0  0  0  0  0  0  0  0  0  0  0
   91.2770  107.7250   79.8020 C   0  0  0  0  0  0  0  0  0  0  0  0
   90.5830  108.5620   78.8940 C   0  0  0  0  0  0  0  0  0  0  0  0
   95.1210  106.4190   78.4630 C   0  0  0  0  0  0  0  0  0  0  0  0
   91.0330  107.5010   74.7090 C   0  0  0  0  0  0  0  0  0  0  0  0
   89.7370  108.5510   76.4550 C   0  0  0  0  0  0  0  0  0  0  0  0
   91.2650  107.9550   81.1840 C   0  0  0  0  0  0  0  0  0  0  0  0
   89.8710  109.6470   79.4570 C   0  0  0  0  0  0  0  0  0  0  0  0
   89.9070  108.2040   75.1120 C   0  0  0  0  0  0  0  0  0  0  0  0
   89.8600  109.8630   80.8380 C   0  0  0  0  0  0  0  0  0  0  0  0
   90.5510  109.0250   81.7020 C   0  0  0  0  0  0  0  0  0  0  0  0
  1  2  1  0  0  0  0
  1  4  1  0  0  0  0
  1  6  1  0  0  0  0
  4  7  2  0  0  0  0
  2  8  1  0  0  0  0
  7  9  1  0  0  0  0
  8  9  1  0  0  0  0
  4 10  1  0  0  0  0
  6 11  1  0  0  0  0
 10 12  1  0  0  0  0
 11 12  1  0  0  0  0
  2 13  1  0  0  0  0
  7 14  1  0  0  0  0
 10 15  2  0  0  0  0
 11 16  2  0  0  0  0
  3 17  1  0  0  0  0
 12 17  2  0  0  0  0
 14 18  2  0  0  0  0
 15 18  1  0  0  0  0
  5 19  1  0  0  0  0
 17 19  1  0  0  0  0
 16 20  1  0  0  0  0
 19 20  2  0  0  0  0
M  END
$$$$
