7SSK
  PyMOL3.1          3D                             0

 27 29  0  0  0  0  0  0  0  0999 V2000
   -9.4170   -6.3540   30.3140 C   0  0  0  0  0  0  0  0  0  0  0  0
   -8.8290   -5.1450   30.7970 O   0  0  0  0  0  0  0  0  0  0  0  0
   -7.6230   -5.1640   31.4560 C   0  0  0  0  0  0  0  0  0  0  0  0
   -7.3350   -4.1290   32.3560 C   0  0  0  0  0  0  0  0  0  0  0  0
   -6.1160   -4.1130   33.0430 C   0  0  0  0  0  0  0  0  0  0  0  0
   -5.1660   -5.1170   32.8230 C   0  0  0  0  0  0  0  0  0  0  0  0
   -3.9630   -5.0620   33.5740 N   0  0  0  0  0  0  0  0  0  0  0  0
   -3.2490   -6.1310   34.1350 C   0  0  0  0  0  0  0  0  0  0  0  0
   -3.4820   -7.3300   34.0320 O   0  0  0  0  0  0  0  0  0  0  0  0
   -2.0620   -5.6250   34.9090 C   0  0  0  0  0  0  0  0  0  0  0  0
   -1.2380   -6.7530   35.3130 N   0  0  0  0  0  0  0  0  0  0  0  0
   -1.5500   -7.2530   36.6550 C   0  0  0  0  0  0  0  0  0  0  0  0
   -0.2790   -7.2110   34.3790 C   0  0  0  0  0  0  0  0  0  0  0  0
   -0.1740   -6.6470   33.2720 O   0  0  0  0  0  0  0  0  0  0  0  0
    0.6700   -8.4080   34.7200 C   0  0  0  0  0  0  0  0  0  0  0  0
    1.7520   -8.6550   33.6510 C   0  0  0  0  0  0  0  0  0  0  0  0
    2.8210   -7.5990   33.8580 C   0  0  0  0  0  0  0  0  0  0  0  0
    2.7240   -7.1750   35.3140 C   0  0  0  0  0  0  0  0  0  0  0  0
    1.5300   -7.9090   35.9090 C   0  0  0  0  0  0  0  0  0  0  0  0
   -0.0410   -9.7440   34.7740 C   0  0  0  0  0  0  0  0  0  0  0  0
   -1.1240   -9.9770   33.9280 C   0  0  0  0  0  0  0  0  0  0  0  0
   -1.7570  -11.2180   33.9200 C   0  0  0  0  0  0  0  0  0  0  0  0
   -1.3030  -12.2280   34.7650 C   0  0  0  0  0  0  0  0  0  0  0  0
   -0.2080  -12.0030   35.6140 C   0  0  0  0  0  0  0  0  0  0  0  0
    0.4330  -10.7680   35.6110 C   0  0  0  0  0  0  0  0  0  0  0  0
   -5.4440   -6.1650   31.9370 C   0  0  0  0  0  0  0  0  0  0  0  0
   -6.6620   -6.1780   31.2490 C   0  0  0  0  0  0  0  0  0  0  0  0
  1  2  1  0  0  0  0
  2  3  1  0  0  0  0
  3  4  1  0  0  0  0
  4  5  2  0  0  0  0
  5  6  1  0  0  0  0
  6  7  1  0  0  0  0
  7  8  1  0  0  0  0
  8  9  2  0  0  0  0
  8 10  1  0  0  0  0
 10 11  1  0  0  0  0
 11 12  1  0  0  0  0
 11 13  1  0  0  0  0
 13 14  2  0  0  0  0
 13 15  1  0  0  0  0
 15 16  1  0  0  0  0
 16 17  1  0  0  0  0
 17 18  1  0  0  0  0
 15 19  1  0  0  0  0
 18 19  1  0  0  0  0
 15 20  1  0  0  0  0
 20 21  1  0  0  0  0
 21 22  2  0  0  0  0
 22 23  1  0  0  0  0
 23 24  2  0  0  0  0
 20 25  2  0  0  0  0
 24 25  1  0  0  0  0
  6 26  2  0  0  0  0
  3 27  2  0  0  0  0
 26 27  1  0  0  0  0
M  END
$$$$
