8V86
  PyMOL3.1          3D                             0

205220  0  0  0  0  0  0  0  0999 V2000
  149.7570  123.0000  132.3530 C   0  0  0  0  0  0  0  0  0  0  0  0
  150.4390  122.3140  133.4900 C   0  0  0  0  0  0  0  0  0  0  0  0
  150.3010  122.9770  134.6340 C   0  0  0  0  0  0  0  0  0  0  0  0
  149.5730  124.2860  134.4220 C   0  0  0  0  0  0  0  0  0  0  0  0
  149.6590  124.4440  132.8820 C   0  0  0  0  0  0  0  0  0  0  0  0
  148.4970  125.3280  132.4230 C   0  0  0  0  0  0  0  0  0  0  0  0
  147.2540  124.6530  132.7560 N   0  0  0  0  0  0  0  0  0  0  0  0
  147.0560  124.4680  134.1120 C   0  0  0  0  0  0  0  0  0  0  0  0
  148.1540  124.2770  134.9610 C   0  0  0  0  0  0  0  0  0  0  0  0
  147.9210  124.0600  136.3120 C   0  0  0  0  0  0  0  0  0  0  0  0
  146.6310  124.0340  136.8140 C   0  0  0  0  0  0  0  0  0  0  0  0
  145.5450  124.2220  135.9780 C   0  0  0  0  0  0  0  0  0  0  0  0
  145.7610  124.4400  134.6290 C   0  0  0  0  0  0  0  0  0  0  0  0
  146.3760  123.7500  138.5360 S   0  0  0  0  0  0  0  0  0  0  0  0
  147.6160  123.2890  139.0820 O   0  0  0  0  0  0  0  0  0  0  0  0
  145.2170  122.9200  138.6630 O   0  0  0  0  0  0  0  0  0  0  0  0
  146.0380  125.1500  139.2330 N   0  0  0  0  0  0  0  0  0  0  0  0
  148.5670  125.6270  130.9410 C   0  0  0  0  0  0  0  0  0  0  0  0
  148.9620  126.8750  130.4820 C   0  0  0  0  0  0  0  0  0  0  0  0
  149.0740  127.1360  129.1280 C   0  0  0  0  0  0  0  0  0  0  0  0
  148.7840  126.1350  128.2270 C   0  0  0  0  0  0  0  0  0  0  0  0
  148.3870  124.8850  128.6500 C   0  0  0  0  0  0  0  0  0  0  0  0
  148.2810  124.6400  130.0080 C   0  0  0  0  0  0  0  0  0  0  0  0
  148.9560  126.4770  126.3680 Br  0  0  0  0  0  0  0  0  0  0  0  0
  150.9340  121.4750  133.3950 H   0  0  0  0  0  0  0  0  0  0  0  0
  150.6220  122.6630  135.5050 H   0  0  0  0  0  0  0  0  0  0  0  0
  150.0650  125.0160  134.8500 H   0  0  0  0  0  0  0  0  0  0  0  0
  150.5010  124.8960  132.6750 H   0  0  0  0  0  0  0  0  0  0  0  0
  148.5500  126.1910  132.8850 H   0  0  0  0  0  0  0  0  0  0  0  0
  146.6750  124.3860  132.1460 H   0  0  0  0  0  0  0  0  0  0  0  0
  148.6770  123.9160  136.9170 H   0  0  0  0  0  0  0  0  0  0  0  0
  144.6300  124.1980  136.3270 H   0  0  0  0  0  0  0  0  0  0  0  0
  144.9930  124.5710  134.0380 H   0  0  0  0  0  0  0  0  0  0  0  0
  149.1580  127.6090  131.0990 H   0  0  0  0  0  0  0  0  0  0  0  0
  149.3750  128.0150  128.8240 H   0  0  0  0  0  0  0  0  0  0  0  0
  148.1690  124.1780  128.0090 H   0  0  0  0  0  0  0  0  0  0  0  0
  147.9970  123.7500  130.3030 H   0  0  0  0  0  0  0  0  0  0  0  0
  148.8880  122.5840  132.1720 H   0  0  0  0  0  0  0  0  0  0  0  0
  150.3060  122.9460  131.5450 H   0  0  0  0  0  0  0  0  0  0  0  0
  146.0450  125.7940  138.6280 H   0  0  0  0  0  0  0  0  0  0  0  0
  145.2830  125.0860  139.6870 H   0  0  0  0  0  0  0  0  0  0  0  0
  156.0820  144.5190  132.3520 C   0  0  0  0  0  0  0  0  0  0  0  0
  156.9460  144.9550  133.4890 C   0  0  0  0  0  0  0  0  0  0  0  0
  156.2730  145.0290  134.6330 C   0  0  0  0  0  0  0  0  0  0  0  0
  154.8030  144.7430  134.4220 C   0  0  0  0  0  0  0  0  0  0  0  0
  154.6800  144.8730  132.8820 C   0  0  0  0  0  0  0  0  0  0  0  0
  153.4790  144.0420  132.4230 C   0  0  0  0  0  0  0  0  0  0  0  0
  153.7370  142.6510  132.7560 N   0  0  0  0  0  0  0  0  0  0  0  0
  153.8510  142.4050  134.1120 C   0  0  0  0  0  0  0  0  0  0  0  0
  154.3720  143.3900  134.9610 C   0  0  0  0  0  0  0  0  0  0  0  0
  154.5070  143.1020  136.3120 C   0  0  0  0  0  0  0  0  0  0  0  0
  154.1320  141.8670  136.8140 C   0  0  0  0  0  0  0  0  0  0  0  0
  153.6180  140.8920  135.9780 C   0  0  0  0  0  0  0  0  0  0  0  0
  153.4780  141.1650  134.6290 C   0  0  0  0  0  0  0  0  0  0  0  0
  154.3240  141.5360  138.5360 S   0  0  0  0  0  0  0  0  0  0  0  0
  155.1460  142.5730  139.0820 O   0  0  0  0  0  0  0  0  0  0  0  0
  154.7550  140.1780  138.6630 O   0  0  0  0  0  0  0  0  0  0  0  0
  152.8890  141.6480  139.2330 N   0  0  0  0  0  0  0  0  0  0  0  0
  153.2160  144.2000  130.9410 C   0  0  0  0  0  0  0  0  0  0  0  0
  152.1510  144.9620  130.4820 C   0  0  0  0  0  0  0  0  0  0  0  0
  151.9370  145.1490  129.1280 C   0  0  0  0  0  0  0  0  0  0  0  0
  152.8000  144.5630  128.2270 C   0  0  0  0  0  0  0  0  0  0  0  0
  153.8650  143.7990  128.6500 C   0  0  0  0  0  0  0  0  0  0  0  0
  154.0660  143.6220  130.0080 C   0  0  0  0  0  0  0  0  0  0  0  0
  152.5280  144.8320  126.3680 Br  0  0  0  0  0  0  0  0  0  0  0  0
  157.8970  145.1670  133.3940 H   0  0  0  0  0  0  0  0  0  0  0  0
  156.6710  145.2380  135.5040 H   0  0  0  0  0  0  0  0  0  0  0  0
  154.2610  145.4360  134.8500 H   0  0  0  0  0  0  0  0  0  0  0  0
  154.5090  145.8130  132.6750 H   0  0  0  0  0  0  0  0  0  0  0  0
  152.6750  144.3590  132.8850 H   0  0  0  0  0  0  0  0  0  0  0  0
  153.8110  142.0170  132.1460 H   0  0  0  0  0  0  0  0  0  0  0  0
  154.8780  143.7760  136.9170 H   0  0  0  0  0  0  0  0  0  0  0  0
  153.3580  140.0150  136.3270 H   0  0  0  0  0  0  0  0  0  0  0  0
  153.1150  140.4750  134.0380 H   0  0  0  0  0  0  0  0  0  0  0  0
  151.5140  145.3750  131.0990 H   0  0  0  0  0  0  0  0  0  0  0  0
  151.1950  145.7070  128.8240 H   0  0  0  0  0  0  0  0  0  0  0  0
  154.4700  143.3730  128.0090 H   0  0  0  0  0  0  0  0  0  0  0  0
  154.8240  143.0770  130.3030 H   0  0  0  0  0  0  0  0  0  0  0  0
  156.2090  143.5640  132.1720 H   0  0  0  0  0  0  0  0  0  0  0  0
  156.3040  145.0240  131.5440 H   0  0  0  0  0  0  0  0  0  0  0  0
  152.2780  141.8540  138.6280 H   0  0  0  0  0  0  0  0  0  0  0  0
  152.7150  140.9100  139.6870 H   0  0  0  0  0  0  0  0  0  0  0  0
  137.5810  157.1760  132.3490 C   0  0  0  0  0  0  0  0  0  0  0  0
  137.4320  158.1320  133.4860 C   0  0  0  0  0  0  0  0  0  0  0  0
  137.1540  157.5150  134.6300 C   0  0  0  0  0  0  0  0  0  0  0  0
  136.9730  156.0280  134.4180 C   0  0  0  0  0  0  0  0  0  0  0  0
  136.8110  155.9510  132.8780 C   0  0  0  0  0  0  0  0  0  0  0  0
  137.2310  154.5520  132.4190 C   0  0  0  0  0  0  0  0  0  0  0  0
  138.6340  154.3680  132.7520 N   0  0  0  0  0  0  0  0  0  0  0  0
  138.9030  154.4010  134.1080 C   0  0  0  0  0  0  0  0  0  0  0  0
  138.1260  155.2010  134.9570 C   0  0  0  0  0  0  0  0  0  0  0  0
  138.4420  155.2400  136.3080 C   0  0  0  0  0  0  0  0  0  0  0  0
  139.5010  154.5020  136.8110 C   0  0  0  0  0  0  0  0  0  0  0  0
  140.2700  153.7120  135.9750 C   0  0  0  0  0  0  0  0  0  0  0  0
  139.9670  153.6630  134.6260 C   0  0  0  0  0  0  0  0  0  0  0  0
  139.8750  154.5830  138.5330 S   0  0  0  0  0  0  0  0  0  0  0  0
  139.1420  155.6840  139.0780 O   0  0  0  0  0  0  0  0  0  0  0  0
  141.2990  154.5730  138.6600 O   0  0  0  0  0  0  0  0  0  0  0  0
  139.3250  153.2520  139.2290 N   0  0  0  0  0  0  0  0  0  0  0  0
  136.9990  154.3520  130.9370 C   0  0  0  0  0  0  0  0  0  0  0  0
  135.9460  153.5740  130.4780 C   0  0  0  0  0  0  0  0  0  0  0  0
  135.7030  153.4280  129.1240 C   0  0  0  0  0  0  0  0  0  0  0  0
  136.5260  154.0680  128.2230 C   0  0  0  0  0  0  0  0  0  0  0  0
  137.5810  154.8460  128.6460 C   0  0  0  0  0  0  0  0  0  0  0  0
  137.8110  154.9820  130.0040 C   0  0  0  0  0  0  0  0  0  0  0  0
  136.1860  153.8930  126.3640 Br  0  0  0  0  0  0  0  0  0  0  0  0
  137.5240  159.1020  133.3910 H   0  0  0  0  0  0  0  0  0  0  0  0
  137.0780  157.9570  135.5010 H   0  0  0  0  0  0  0  0  0  0  0  0
  136.1470  155.7270  134.8460 H   0  0  0  0  0  0  0  0  0  0  0  0
  135.8640  156.0790  132.6710 H   0  0  0  0  0  0  0  0  0  0  0  0
  136.6820  153.8860  132.8810 H   0  0  0  0  0  0  0  0  0  0  0  0
  139.2590  154.2440  132.1420 H   0  0  0  0  0  0  0  0  0  0  0  0
  137.9150  155.8000  136.9130 H   0  0  0  0  0  0  0  0  0  0  0  0
  141.0240  153.1940  136.3240 H   0  0  0  0  0  0  0  0  0  0  0  0
  140.5120  153.1050  134.0350 H   0  0  0  0  0  0  0  0  0  0  0  0
  135.3570  153.0950  131.0950 H   0  0  0  0  0  0  0  0  0  0  0  0
  134.9430  152.8940  128.8200 H   0  0  0  0  0  0  0  0  0  0  0  0
  138.1730  155.2900  128.0050 H   0  0  0  0  0  0  0  0  0  0  0  0
  138.5640  155.5350  130.2990 H   0  0  0  0  0  0  0  0  0  0  0  0
  138.5280  157.0020  132.1680 H   0  0  0  0  0  0  0  0  0  0  0  0
  137.1680  157.5430  131.5410 H   0  0  0  0  0  0  0  0  0  0  0  0
  138.9420  152.7350  138.6240 H   0  0  0  0  0  0  0  0  0  0  0  0
  139.9740  152.8590  139.6840 H   0  0  0  0  0  0  0  0  0  0  0  0
  119.8150  143.4960  132.3530 C   0  0  0  0  0  0  0  0  0  0  0  0
  118.8600  143.6500  133.4900 C   0  0  0  0  0  0  0  0  0  0  0  0
  119.3610  143.1950  134.6340 C   0  0  0  0  0  0  0  0  0  0  0  0
  120.7190  142.5630  134.4220 C   0  0  0  0  0  0  0  0  0  0  0  0
  120.7420  142.3850  132.8820 C   0  0  0  0  0  0  0  0  0  0  0  0
  122.2020  142.3520  132.4230 C   0  0  0  0  0  0  0  0  0  0  0  0
  122.8110  143.6290  132.7560 N   0  0  0  0  0  0  0  0  0  0  0  0
  122.8630  143.8950  134.1120 C   0  0  0  0  0  0  0  0  0  0  0  0
  121.8620  143.4040  134.9610 C   0  0  0  0  0  0  0  0  0  0  0  0
  121.9230  143.7170  136.3120 C   0  0  0  0  0  0  0  0  0  0  0  0
  122.9520  144.4960  136.8140 C   0  0  0  0  0  0  0  0  0  0  0  0
  123.9410  144.9820  135.9780 C   0  0  0  0  0  0  0  0  0  0  0  0
  123.8940  144.6790  134.6290 C   0  0  0  0  0  0  0  0  0  0  0  0
  122.9910  144.8760  138.5360 S   0  0  0  0  0  0  0  0  0  0  0  0
  121.7170  144.5200  139.0820 O   0  0  0  0  0  0  0  0  0  0  0  0
  123.4410  146.2280  138.6630 O   0  0  0  0  0  0  0  0  0  0  0  0
  124.0870  143.9420  139.2330 N   0  0  0  0  0  0  0  0  0  0  0  0
  122.3210  142.0690  130.9410 C   0  0  0  0  0  0  0  0  0  0  0  0
  122.7350  140.8270  130.4820 C   0  0  0  0  0  0  0  0  0  0  0  0
  122.7980  140.5500  129.1280 C   0  0  0  0  0  0  0  0  0  0  0  0
  122.4440  141.5310  128.2270 C   0  0  0  0  0  0  0  0  0  0  0  0
  122.0310  142.7750  128.6500 C   0  0  0  0  0  0  0  0  0  0  0  0
  121.9730  143.0360  130.0080 C   0  0  0  0  0  0  0  0  0  0  0  0
  122.5060  141.1530  126.3680 Br  0  0  0  0  0  0  0  0  0  0  0  0
  117.9660  144.0380  133.3950 H   0  0  0  0  0  0  0  0  0  0  0  0
  118.9170  143.2600  135.5050 H   0  0  0  0  0  0  0  0  0  0  0  0
  120.7500  141.6840  134.8500 H   0  0  0  0  0  0  0  0  0  0  0  0
  120.3270  141.5240  132.6750 H   0  0  0  0  0  0  0  0  0  0  0  0
  122.6660  141.6230  132.8850 H   0  0  0  0  0  0  0  0  0  0  0  0
  123.1230  144.1850  132.1460 H   0  0  0  0  0  0  0  0  0  0  0  0
  121.2270  143.3890  136.9170 H   0  0  0  0  0  0  0  0  0  0  0  0
  124.6670  145.5390  136.3270 H   0  0  0  0  0  0  0  0  0  0  0  0
  124.5930  145.0240  134.0380 H   0  0  0  0  0  0  0  0  0  0  0  0
  123.0080  140.1180  131.0990 H   0  0  0  0  0  0  0  0  0  0  0  0
  123.0710  139.6620  128.8240 H   0  0  0  0  0  0  0  0  0  0  0  0
  121.7920  143.4750  128.0090 H   0  0  0  0  0  0  0  0  0  0  0  0
  121.6800  143.9230  130.3030 H   0  0  0  0  0  0  0  0  0  0  0  0
  120.2740  144.3430  132.1720 H   0  0  0  0  0  0  0  0  0  0  0  0
  119.3390  143.2170  131.5450 H   0  0  0  0  0  0  0  0  0  0  0  0
  124.4600  143.4170  138.6280 H   0  0  0  0  0  0  0  0  0  0  0  0
  124.6610  144.4370  139.6870 H   0  0  0  0  0  0  0  0  0  0  0  0
  127.3380  122.3730  132.3530 C   0  0  0  0  0  0  0  0  0  0  0  0
  126.8970  121.5130  133.4890 C   0  0  0  0  0  0  0  0  0  0  0  0
  127.4850  121.8490  134.6330 C   0  0  0  0  0  0  0  0  0  0  0  0
  128.5050  122.9450  134.4210 C   0  0  0  0  0  0  0  0  0  0  0  0
  128.6820  122.9120  132.8810 C   0  0  0  0  0  0  0  0  0  0  0  0
  129.1640  124.2900  132.4230 C   0  0  0  0  0  0  0  0  0  0  0  0
  128.1380  125.2640  132.7560 N   0  0  0  0  0  0  0  0  0  0  0  0
  127.9010  125.3950  134.1120 C   0  0  0  0  0  0  0  0  0  0  0  0
  128.0590  124.2920  134.9610 C   0  0  0  0  0  0  0  0  0  0  0  0
  127.7800  124.4460  136.3120 C   0  0  0  0  0  0  0  0  0  0  0  0
  127.3570  125.6660  136.8140 C   0  0  0  0  0  0  0  0  0  0  0  0
  127.2000  126.7560  135.9780 C   0  0  0  0  0  0  0  0  0  0  0  0
  127.4740  126.6180  134.6290 C   0  0  0  0  0  0  0  0  0  0  0  0
  127.0080  125.8200  138.5360 S   0  0  0  0  0  0  0  0  0  0  0  0
  126.9530  124.4980  139.0820 O   0  0  0  0  0  0  0  0  0  0  0  0
  125.8610  126.6660  138.6630 O   0  0  0  0  0  0  0  0  0  0  0  0
  128.2350  126.5740  139.2330 N   0  0  0  0  0  0  0  0  0  0  0  0
  129.4700  124.3160  130.9410 C   0  0  0  0  0  0  0  0  0  0  0  0
  130.7790  124.3260  130.4810 C   0  0  0  0  0  0  0  0  0  0  0  0
  131.0620  124.3010  129.1270 C   0  0  0  0  0  0  0  0  0  0  0  0
  130.0190  124.2670  128.2260 C   0  0  0  0  0  0  0  0  0  0  0  0
  128.7090  124.2590  128.6500 C   0  0  0  0  0  0  0  0  0  0  0  0
  128.4430  124.2840  130.0080 C   0  0  0  0  0  0  0  0  0  0  0  0
  130.3980  124.2090  126.3670 Br  0  0  0  0  0  0  0  0  0  0  0  0
  126.2520  120.7820  133.3940 H   0  0  0  0  0  0  0  0  0  0  0  0
  127.2860  121.4460  135.5040 H   0  0  0  0  0  0  0  0  0  0  0  0
  129.3510  122.7030  134.8490 H   0  0  0  0  0  0  0  0  0  0  0  0
  129.3720  122.2510  132.6740 H   0  0  0  0  0  0  0  0  0  0  0  0
  130.0010  124.5060  132.8840 H   0  0  0  0  0  0  0  0  0  0  0  0
  127.7050  125.7330  132.1460 H   0  0  0  0  0  0  0  0  0  0  0  0
  127.8770  123.6830  136.9170 H   0  0  0  0  0  0  0  0  0  0  0  0
  126.8950  127.6190  136.3270 H   0  0  0  0  0  0  0  0  0  0  0  0
  127.3610  127.3900  134.0380 H   0  0  0  0  0  0  0  0  0  0  0  0
  131.5380  124.3670  131.0980 H   0  0  0  0  0  0  0  0  0  0  0  0
  131.9910  124.2860  128.8230 H   0  0  0  0  0  0  0  0  0  0  0  0
  127.9690  124.2480  128.0090 H   0  0  0  0  0  0  0  0  0  0  0  0
  127.5080  124.2790  130.3030 H   0  0  0  0  0  0  0  0  0  0  0  0
  126.6750  123.0720  132.1720 H   0  0  0  0  0  0  0  0  0  0  0  0
  127.4570  121.8350  131.5440 H   0  0  0  0  0  0  0  0  0  0  0  0
  128.8490  126.7660  138.6280 H   0  0  0  0  0  0  0  0  0  0  0  0
  127.9410  127.2730  139.6870 H   0  0  0  0  0  0  0  0  0  0  0  0
  1  2  1  0  0  0  0
  2  3  2  0  0  0  0
  3  4  1  0  0  0  0
  1  5  1  0  0  0  0
  4  5  1  0  0  0  0
  5  6  1  0  0  0  0
  6  7  1  0  0  0  0
  7  8  1  0  0  0  0
  4  9  1  0  0  0  0
  8  9  1  0  0  0  0
  9 10  2  0  0  0  0
 10 11  1  0  0  0  0
 11 12  2  0  0  0  0
  8 13  2  0  0  0  0
 12 13  1  0  0  0  0
 11 14  1  0  0  0  0
 14 15  2  0  0  0  0
 14 16  2  0  0  0  0
 14 17  1  0  0  0  0
  6 18  1  0  0  0  0
 18 19  1  0  0  0  0
 19 20  2  0  0  0  0
 20 21  1  0  0  0  0
 21 22  2  0  0  0  0
 18 23  2  0  0  0  0
 22 23  1  0  0  0  0
 21 24  1  0  0  0  0
  2 25  1  0  0  0  0
  3 26  1  0  0  0  0
  4 27  1  0  0  0  0
  5 28  1  0  0  0  0
  6 29  1  0  0  0  0
  7 30  1  0  0  0  0
 10 31  1  0  0  0  0
 12 32  1  0  0  0  0
 13 33  1  0  0  0  0
 19 34  1  0  0  0  0
 20 35  1  0  0  0  0
 22 36  1  0  0  0  0
 23 37  1  0  0  0  0
  1 38  1  0  0  0  0
  1 39  1  0  0  0  0
 17 40  1  0  0  0  0
 17 41  1  0  0  0  0
 42 43  1  0  0  0  0
 43 44  2  0  0  0  0
 44 45  1  0  0  0  0
 42 46  1  0  0  0  0
 45 46  1  0  0  0  0
 46 47  1  0  0  0  0
 47 48  1  0  0  0  0
 48 49  1  0  0  0  0
 45 50  1  0  0  0  0
 49 50  1  0  0  0  0
 50 51  2  0  0  0  0
 51 52  1  0  0  0  0
 52 53  2  0  0  0  0
 49 54  2  0  0  0  0
 53 54  1  0  0  0  0
 52 55  1  0  0  0  0
 55 56  2  0  0  0  0
 55 57  2  0  0  0  0
 55 58  1  0  0  0  0
 47 59  1  0  0  0  0
 59 60  1  0  0  0  0
 60 61  2  0  0  0  0
 61 62  1  0  0  0  0
 62 63  2  0  0  0  0
 59 64  2  0  0  0  0
 63 64  1  0  0  0  0
 62 65  1  0  0  0  0
 43 66  1  0  0  0  0
 44 67  1  0  0  0  0
 45 68  1  0  0  0  0
 46 69  1  0  0  0  0
 47 70  1  0  0  0  0
 48 71  1  0  0  0  0
 51 72  1  0  0  0  0
 53 73  1  0  0  0  0
 54 74  1  0  0  0  0
 60 75  1  0  0  0  0
 61 76  1  0  0  0  0
 63 77  1  0  0  0  0
 64 78  1  0  0  0  0
 42 79  1  0  0  0  0
 42 80  1  0  0  0  0
 58 81  1  0  0  0  0
 58 82  1  0  0  0  0
 83 84  1  0  0  0  0
 84 85  2  0  0  0  0
 85 86  1  0  0  0  0
 83 87  1  0  0  0  0
 86 87  1  0  0  0  0
 87 88  1  0  0  0  0
 88 89  1  0  0  0  0
 89 90  1  0  0  0  0
 86 91  1  0  0  0  0
 90 91  1  0  0  0  0
 91 92  2  0  0  0  0
 92 93  1  0  0  0  0
 93 94  2  0  0  0  0
 90 95  2  0  0  0  0
 94 95  1  0  0  0  0
 93 96  1  0  0  0  0
 96 97  2  0  0  0  0
 96 98  2  0  0  0  0
 96 99  1  0  0  0  0
 88100  1  0  0  0  0
100101  1  0  0  0  0
101102  2  0  0  0  0
102103  1  0  0  0  0
103104  2  0  0  0  0
100105  2  0  0  0  0
104105  1  0  0  0  0
103106  1  0  0  0  0
 84107  1  0  0  0  0
 85108  1  0  0  0  0
 86109  1  0  0  0  0
 87110  1  0  0  0  0
 88111  1  0  0  0  0
 89112  1  0  0  0  0
 92113  1  0  0  0  0
 94114  1  0  0  0  0
 95115  1  0  0  0  0
101116  1  0  0  0  0
102117  1  0  0  0  0
104118  1  0  0  0  0
105119  1  0  0  0  0
 83120  1  0  0  0  0
 83121  1  0  0  0  0
 99122  1  0  0  0  0
 99123  1  0  0  0  0
124125  1  0  0  0  0
125126  2  0  0  0  0
126127  1  0  0  0  0
124128  1  0  0  0  0
127128  1  0  0  0  0
128129  1  0  0  0  0
129130  1  0  0  0  0
130131  1  0  0  0  0
127132  1  0  0  0  0
131132  1  0  0  0  0
132133  2  0  0  0  0
133134  1  0  0  0  0
134135  2  0  0  0  0
131136  2  0  0  0  0
135136  1  0  0  0  0
134137  1  0  0  0  0
137138  2  0  0  0  0
137139  2  0  0  0  0
137140  1  0  0  0  0
129141  1  0  0  0  0
141142  1  0  0  0  0
142143  2  0  0  0  0
143144  1  0  0  0  0
144145  2  0  0  0  0
141146  2  0  0  0  0
145146  1  0  0  0  0
144147  1  0  0  0  0
125148  1  0  0  0  0
126149  1  0  0  0  0
127150  1  0  0  0  0
128151  1  0  0  0  0
129152  1  0  0  0  0
130153  1  0  0  0  0
133154  1  0  0  0  0
135155  1  0  0  0  0
136156  1  0  0  0  0
142157  1  0  0  0  0
143158  1  0  0  0  0
145159  1  0  0  0  0
146160  1  0  0  0  0
124161  1  0  0  0  0
124162  1  0  0  0  0
140163  1  0  0  0  0
140164  1  0  0  0  0
165166  1  0  0  0  0
166167  2  0  0  0  0
167168  1  0  0  0  0
165169  1  0  0  0  0
168169  1  0  0  0  0
169170  1  0  0  0  0
170171  1  0  0  0  0
171172  1  0  0  0  0
168173  1  0  0  0  0
172173  1  0  0  0  0
173174  2  0  0  0  0
174175  1  0  0  0  0
175176  2  0  0  0  0
172177  2  0  0  0  0
176177  1  0  0  0  0
175178  1  0  0  0  0
178179  2  0  0  0  0
178180  2  0  0  0  0
178181  1  0  0  0  0
170182  1  0  0  0  0
182183  1  0  0  0  0
183184  2  0  0  0  0
184185  1  0  0  0  0
185186  2  0  0  0  0
182187  2  0  0  0  0
186187  1  0  0  0  0
185188  1  0  0  0  0
166189  1  0  0  0  0
167190  1  0  0  0  0
168191  1  0  0  0  0
169192  1  0  0  0  0
170193  1  0  0  0  0
171194  1  0  0  0  0
174195  1  0  0  0  0
176196  1  0  0  0  0
177197  1  0  0  0  0
183198  1  0  0  0  0
184199  1  0  0  0  0
186200  1  0  0  0  0
187201  1  0  0  0  0
165202  1  0  0  0  0
165203  1  0  0  0  0
181204  1  0  0  0  0
181205  1  0  0  0  0
M  END
$$$$
