7UKZ
  PyMOL3.1          3D                             0

 28 31  0  0  0  0  0  0  0  0999 V2000
    4.2290  -57.9830    9.9100 C   0  0  0  0  0  0  0  0  0  0  0  0
    5.5290  -57.8880    9.1100 C   0  0  0  0  0  0  0  0  0  0  0  0
    5.6260  -57.0050    8.0390 C   0  0  0  0  0  0  0  0  0  0  0  0
    6.8030  -56.8650    7.2530 C   0  0  0  0  0  0  0  0  0  0  0  0
    7.9890  -57.6250    7.5040 C   0  0  0  0  0  0  0  0  0  0  0  0
    7.9150  -58.5510    8.6040 C   0  0  0  0  0  0  0  0  0  0  0  0
    6.7030  -58.6820    9.4010 C   0  0  0  0  0  0  0  0  0  0  0  0
    6.6680  -59.6000   10.4790 N   0  0  0  0  0  0  0  0  0  0  0  0
    7.7540  -60.4200   10.8470 C   0  0  0  0  0  0  0  0  0  0  0  0
    7.6160  -61.2080   11.8300 O   0  0  0  0  0  0  0  0  0  0  0  0
    8.9580  -60.2930   10.0570 C   0  0  0  0  0  0  0  0  0  0  0  0
    9.0660  -59.4160    8.9910 C   0  0  0  0  0  0  0  0  0  0  0  0
   10.4160  -59.5740    8.4550 C   0  0  0  0  0  0  0  0  0  0  0  0
   11.1960  -60.4930    9.1040 C   0  0  0  0  0  0  0  0  0  0  0  0
   10.3740  -61.2250   10.3840 S   0  0  0  0  0  0  0  0  0  0  0  0
    9.2470  -57.4530    6.6250 C   0  0  0  0  0  0  0  0  0  0  0  0
   10.3110  -56.5560    6.8690 C   0  0  0  0  0  0  0  0  0  0  0  0
   11.4540  -56.4220    6.0510 C   0  0  0  0  0  0  0  0  0  0  0  0
   11.6740  -57.1790    4.8840 C   0  0  0  0  0  0  0  0  0  0  0  0
   10.6240  -58.0730    4.6360 C   0  0  0  0  0  0  0  0  0  0  0  0
    9.4840  -58.2070    5.4530 C   0  0  0  0  0  0  0  0  0  0  0  0
   12.9270  -57.0400    3.9680 C   0  0  0  0  0  0  0  0  0  0  0  0
   13.2540  -58.3420    3.2170 C   0  0  0  0  0  0  0  0  0  0  0  0
   12.8240  -55.8870    2.9120 C   0  0  0  0  0  0  0  0  0  0  0  0
   11.8630  -54.7700    3.2920 N   0  0  0  0  0  0  0  0  0  0  0  0
   12.5020  -53.4710    2.9190 C   0  0  0  0  0  0  0  0  0  0  0  0
   10.5880  -54.8820    2.5040 C   0  0  0  0  0  0  0  0  0  0  0  0
    6.8620  -55.9880    6.2090 O   0  0  0  0  0  0  0  0  0  0  0  0
  1  2  1  0  0  0  0
  2  3  1  0  0  0  0
  3  4  2  0  0  0  0
  4  5  1  0  0  0  0
  5  6  2  0  0  0  0
  2  7  2  0  0  0  0
  6  7  1  0  0  0  0
  7  8  1  0  0  0  0
  8  9  1  0  0  0  0
  9 10  2  0  0  0  0
  9 11  1  0  0  0  0
  6 12  1  0  0  0  0
 11 12  2  0  0  0  0
 12 13  1  0  0  0  0
 13 14  2  0  0  0  0
 11 15  1  0  0  0  0
 14 15  1  0  0  0  0
  5 16  1  0  0  0  0
 16 17  2  0  0  0  0
 17 18  1  0  0  0  0
 18 19  2  0  0  0  0
 19 20  1  0  0  0  0
 16 21  1  0  0  0  0
 20 21  2  0  0  0  0
 19 22  1  0  0  0  0
 22 23  1  0  0  0  0
 22 24  1  0  0  0  0
 24 25  1  0  0  0  0
 25 26  1  0  0  0  0
 25 27  1  0  0  0  0
  4 28  1  0  0  0  0
M  END
$$$$
