7UKZ
  PyMOL3.1          3D                             0

 28 31  0  0  0  0  0  0  0  0999 V2000
   26.6080  -11.2640   14.7170 C   0  0  0  0  0  0  0  0  0  0  0  0
   27.2890  -10.1060   15.4490 C   0  0  0  0  0  0  0  0  0  0  0  0
   28.1950  -10.3600   16.4730 C   0  0  0  0  0  0  0  0  0  0  0  0
   28.8640   -9.3310   17.1940 C   0  0  0  0  0  0  0  0  0  0  0  0
   28.6520   -7.9430   16.9210 C   0  0  0  0  0  0  0  0  0  0  0  0
   27.7140   -7.6520   15.8670 C   0  0  0  0  0  0  0  0  0  0  0  0
   27.0410   -8.7170   15.1380 C   0  0  0  0  0  0  0  0  0  0  0  0
   26.1280   -8.3950   14.1040 N   0  0  0  0  0  0  0  0  0  0  0  0
   25.8130   -7.0800   13.7160 C   0  0  0  0  0  0  0  0  0  0  0  0
   24.9790   -6.9070   12.7760 O   0  0  0  0  0  0  0  0  0  0  0  0
   26.4810   -6.0180   14.4370 C   0  0  0  0  0  0  0  0  0  0  0  0
   27.3860   -6.2570   15.4580 C   0  0  0  0  0  0  0  0  0  0  0  0
   27.8380   -4.9510   15.9310 C   0  0  0  0  0  0  0  0  0  0  0  0
   27.2890   -3.8760   15.2880 C   0  0  0  0  0  0  0  0  0  0  0  0
   26.2060   -4.3510   14.0840 S   0  0  0  0  0  0  0  0  0  0  0  0
   29.3940   -6.8520   17.7260 C   0  0  0  0  0  0  0  0  0  0  0  0
   30.6150   -6.2440   17.3610 C   0  0  0  0  0  0  0  0  0  0  0  0
   31.2750   -5.2480   18.1120 C   0  0  0  0  0  0  0  0  0  0  0  0
   30.7900   -4.7350   19.3290 C   0  0  0  0  0  0  0  0  0  0  0  0
   29.5770   -5.3320   19.7000 C   0  0  0  0  0  0  0  0  0  0  0  0
   28.9180   -6.3270   18.9490 C   0  0  0  0  0  0  0  0  0  0  0  0
   31.5080   -3.6370   20.1690 C   0  0  0  0  0  0  0  0  0  0  0  0
   30.5150   -2.6920   20.8690 C   0  0  0  0  0  0  0  0  0  0  0  0
   32.4910   -4.1980   21.2520 C   0  0  0  0  0  0  0  0  0  0  0  0
   32.8650   -5.6610   21.0680 N   0  0  0  0  0  0  0  0  0  0  0  0
   34.3220   -5.8020   21.3720 C   0  0  0  0  0  0  0  0  0  0  0  0
   32.1210   -6.5210   22.0510 C   0  0  0  0  0  0  0  0  0  0  0  0
   29.7490   -9.6140   18.1940 O   0  0  0  0  0  0  0  0  0  0  0  0
  1  2  1  0  0  0  0
  2  3  1  0  0  0  0
  3  4  2  0  0  0  0
  4  5  1  0  0  0  0
  5  6  2  0  0  0  0
  2  7  2  0  0  0  0
  6  7  1  0  0  0  0
  7  8  1  0  0  0  0
  8  9  1  0  0  0  0
  9 10  2  0  0  0  0
  9 11  1  0  0  0  0
  6 12  1  0  0  0  0
 11 12  2  0  0  0  0
 12 13  1  0  0  0  0
 13 14  2  0  0  0  0
 11 15  1  0  0  0  0
 14 15  1  0  0  0  0
  5 16  1  0  0  0  0
 16 17  2  0  0  0  0
 17 18  1  0  0  0  0
 18 19  2  0  0  0  0
 19 20  1  0  0  0  0
 16 21  1  0  0  0  0
 20 21  2  0  0  0  0
 19 22  1  0  0  0  0
 22 23  1  0  0  0  0
 22 24  1  0  0  0  0
 24 25  1  0  0  0  0
 25 26  1  0  0  0  0
 25 27  1  0  0  0  0
  4 28  1  0  0  0  0
M  END
$$$$
