7NI4
  PyMOL3.1          3D                             0

 33 37  0  0  0  0  0  0  0  0999 V2000
  186.5200  250.6910  152.8280 C   0  0  0  0  0  0  0  0  0  0  0  0
  186.2100  249.3840  153.3060 O   0  0  0  0  0  0  0  0  0  0  0  0
  184.6610  247.9150  156.2040 C   0  0  0  0  0  0  0  0  0  0  0  0
  184.0740  249.0090  156.7840 C   0  0  0  0  0  0  0  0  0  0  0  0
  184.1760  250.2260  156.2440 N   0  0  0  0  0  0  0  0  0  0  0  0
  184.8730  250.3490  155.1090 C   0  0  0  0  0  0  0  0  0  0  0  0
  185.4900  249.2940  154.4650 C   0  0  0  0  0  0  0  0  0  0  0  0
  185.3910  248.0190  155.0240 C   0  0  0  0  0  0  0  0  0  0  0  0
  184.2220  246.2140  153.0060 O   0  0  0  0  0  0  0  0  0  0  0  0
  186.0050  244.0610  152.1190 C   0  0  0  0  0  0  0  0  0  0  0  0
  186.2650  245.1150  153.0960 N   0  0  0  0  0  0  0  0  0  0  0  0
  185.3510  246.0830  153.4410 C   0  0  0  0  0  0  0  0  0  0  0  0
  185.9900  246.8820  154.3930 N   0  0  0  0  0  0  0  0  0  0  0  0
  192.6120  247.0370  158.1080 C   0  0  0  0  0  0  0  0  0  0  0  0
  191.5490  247.9510  157.8580 O   0  0  0  0  0  0  0  0  0  0  0  0
  187.7060  251.0610  156.6340 C   0  0  0  0  0  0  0  0  0  0  0  0
  189.8370  251.4630  160.9650 C   0  0  0  0  0  0  0  0  0  0  0  0
  189.8430  249.6290  159.2520 C   0  0  0  0  0  0  0  0  0  0  0  0
  189.4750  250.8370  159.7010 N   0  0  0  0  0  0  0  0  0  0  0  0
  188.6710  251.5030  158.8340 N   0  0  0  0  0  0  0  0  0  0  0  0
  188.5390  250.6740  157.8120 C   0  0  0  0  0  0  0  0  0  0  0  0
  189.2620  249.4650  158.0230 C   0  0  0  0  0  0  0  0  0  0  0  0
  188.2820  247.9500  156.3410 C   0  0  0  0  0  0  0  0  0  0  0  0
  189.3600  248.2910  157.1180 C   0  0  0  0  0  0  0  0  0  0  0  0
  190.5340  247.5270  157.0450 C   0  0  0  0  0  0  0  0  0  0  0  0
  190.6250  246.4490  156.2160 C   0  0  0  0  0  0  0  0  0  0  0  0
  189.5290  246.0760  155.4060 C   0  0  0  0  0  0  0  0  0  0  0  0
  188.3370  246.8400  155.4680 C   0  0  0  0  0  0  0  0  0  0  0  0
  187.2770  246.3970  154.6170 C   0  0  0  0  0  0  0  0  0  0  0  0
  187.4460  245.2980  153.8090 C   0  0  0  0  0  0  0  0  0  0  0  0
  188.6600  244.6280  153.8330 C   0  0  0  0  0  0  0  0  0  0  0  0
  189.6780  244.9770  154.5890 N   0  0  0  0  0  0  0  0  0  0  0  0
  184.5300  246.7020  156.7880 F   0  0  0  0  0  0  0  0  0  0  0  0
  1  2  1  0  0  0  0
  3  4  2  0  0  0  0
  4  5  1  0  0  0  0
  5  6  2  0  0  0  0
  2  7  1  0  0  0  0
  6  7  1  0  0  0  0
  3  8  1  0  0  0  0
  7  8  2  0  0  0  0
 10 11  1  0  0  0  0
  9 12  2  0  0  0  0
 11 12  1  0  0  0  0
  8 13  1  0  0  0  0
 12 13  1  0  0  0  0
 14 15  1  0  0  0  0
 17 19  1  0  0  0  0
 18 19  1  0  0  0  0
 19 20  1  0  0  0  0
 16 21  1  0  0  0  0
 20 21  2  0  0  0  0
 18 22  2  0  0  0  0
 21 22  1  0  0  0  0
 22 24  1  0  0  0  0
 23 24  1  0  0  0  0
 15 25  1  0  0  0  0
 24 25  2  0  0  0  0
 25 26  1  0  0  0  0
 26 27  2  0  0  0  0
 23 28  2  0  0  0  0
 27 28  1  0  0  0  0
 13 29  1  0  0  0  0
 28 29  1  0  0  0  0
 11 30  1  0  0  0  0
 29 30  2  0  0  0  0
 30 31  1  0  0  0  0
 27 32  1  0  0  0  0
 31 32  2  0  0  0  0
  3 33  1  0  0  0  0
M  END
$$$$
