8TZE
  PyMOL3.1          3D                             0

 39 43  0  0  0  0  0  0  0  0999 V2000
  237.8570  180.4650  210.6540 C   0  0  0  0  0  0  0  0  0  0  0  0
  237.0940  179.9420  209.4450 C   0  0  0  0  0  0  0  0  0  0  0  0
  236.5870  178.6510  209.4540 C   0  0  0  0  0  0  0  0  0  0  0  0
  235.8920  178.1690  208.3630 C   0  0  0  0  0  0  0  0  0  0  0  0
  235.6990  178.9770  207.2530 C   0  0  0  0  0  0  0  0  0  0  0  0
  236.2060  180.2690  207.2350 C   0  0  0  0  0  0  0  0  0  0  0  0
  236.9050  180.7520  208.3350 C   0  0  0  0  0  0  0  0  0  0  0  0
  234.9180  178.4090  206.0460 C   0  0  0  0  0  0  0  0  0  0  0  0
  234.6770  177.2530  206.0190 O   0  0  0  0  0  0  0  0  0  0  0  0
  234.5010  179.2920  204.9520 N   0  0  0  0  0  0  0  0  0  0  0  0
  233.7570  178.7670  203.7740 C   0  0  0  0  0  0  0  0  0  0  0  0
  232.7110  177.8600  203.9250 C   0  0  0  0  0  0  0  0  0  0  0  0
  231.9990  177.3470  202.8190 C   0  0  0  0  0  0  0  0  0  0  0  0
  232.3590  177.7880  201.5080 C   0  0  0  0  0  0  0  0  0  0  0  0
  233.4090  178.6990  201.3850 C   0  0  0  0  0  0  0  0  0  0  0  0
  234.1040  179.1870  202.5000 C   0  0  0  0  0  0  0  0  0  0  0  0
  231.6230  177.2820  200.2140 C   0  0  0  0  0  0  0  0  0  0  0  0
  232.5170  177.2030  199.2260 N   0  0  0  0  0  0  0  0  0  0  0  0
  231.9980  177.6380  198.1020 C   0  0  0  0  0  0  0  0  0  0  0  0
  232.7970  177.2620  196.8400 C   0  0  0  0  0  0  0  0  0  0  0  0
  233.9950  176.8090  197.1710 N   0  0  0  0  0  0  0  0  0  0  0  0
  233.8560  175.7280  197.9100 C   0  0  0  0  0  0  0  0  0  0  0  0
  233.0310  176.0080  199.1690 C   0  0  0  0  0  0  0  0  0  0  0  0
  234.6630  176.5150  196.0920 C   0  0  0  0  0  0  0  0  0  0  0  0
  230.8580  176.3520  203.0730 C   0  0  0  0  0  0  0  0  0  0  0  0
  236.7870  177.7380  210.6700 C   0  0  0  0  0  0  0  0  0  0  0  0
  236.9340  177.0170  211.6110 C   0  0  0  0  0  0  0  0  0  0  0  0
  237.1100  176.0910  212.8250 C   0  0  0  0  0  0  0  0  0  0  0  0
  238.1790  175.2160  212.9000 C   0  0  0  0  0  0  0  0  0  0  0  0
  238.2690  174.4450  213.9800 C   0  0  0  0  0  0  0  0  0  0  0  0
  237.3100  174.5000  215.0370 C   0  0  0  0  0  0  0  0  0  0  0  0
  237.8540  173.5120  215.9090 N   0  0  0  0  0  0  0  0  0  0  0  0
  238.9520  172.8590  215.6110 N   0  0  0  0  0  0  0  0  0  0  0  0
  239.1540  173.4280  214.4920 C   0  0  0  0  0  0  0  0  0  0  0  0
  236.2630  175.3200  215.0200 N   0  0  0  0  0  0  0  0  0  0  0  0
  236.1560  176.1290  213.9000 C   0  0  0  0  0  0  0  0  0  0  0  0
  231.0480  175.2040  202.3640 F   0  0  0  0  0  0  0  0  0  0  0  0
  230.8220  176.0540  204.4010 F   0  0  0  0  0  0  0  0  0  0  0  0
  229.6710  176.9200  202.7120 F   0  0  0  0  0  0  0  0  0  0  0  0
  1  2  1  0  0  0  0
  2  3  2  0  0  0  0
  3  4  1  0  0  0  0
  4  5  2  0  0  0  0
  5  6  1  0  0  0  0
  2  7  1  0  0  0  0
  6  7  2  0  0  0  0
  5  8  1  0  0  0  0
  8  9  2  0  0  0  0
  8 10  1  0  0  0  0
 10 11  1  0  0  0  0
 11 12  2  0  0  0  0
 12 13  1  0  0  0  0
 13 14  2  0  0  0  0
 14 15  1  0  0  0  0
 11 16  1  0  0  0  0
 15 16  2  0  0  0  0
 14 17  1  0  0  0  0
 17 18  1  0  0  0  0
 18 19  1  0  0  0  0
 19 20  1  0  0  0  0
 20 21  1  0  0  0  0
 21 22  1  0  0  0  0
 18 23  1  0  0  0  0
 22 23  1  0  0  0  0
 21 24  1  0  0  0  0
 13 25  1  0  0  0  0
  3 26  1  0  0  0  0
 26 27  3  0  0  0  0
 27 28  1  0  0  0  0
 28 29  2  0  0  0  0
 29 30  1  0  0  0  0
 30 31  2  0  0  0  0
 31 32  1  0  0  0  0
 32 33  1  0  0  0  0
 30 34  1  0  0  0  0
 33 34  2  0  0  0  0
 31 35  1  0  0  0  0
 28 36  1  0  0  0  0
 35 36  2  0  0  0  0
 25 37  1  0  0  0  0
 25 38  1  0  0  0  0
 25 39  1  0  0  0  0
M  END
$$$$
